
OS:Version,
  {32b5ddc3-5c50-4047-8f80-26de435eb6d1}, !- Handle
  2.8.0;                                  !- Version Identifier

OS:Facility,
  {5c5757e1-961b-4475-aca3-b7e06cba1a76}; !- Handle

OS:Site,
  {456235ac-e860-4890-bc55-ea9cbfc34e06}, !- Handle
  Buffalo Niagara Intl Ap_NY_USA,         !- Name
  42.8177446702697,                       !- Latitude {deg}
  -78.852465967195,                       !- Longitude {deg}
  -5,                                     !- Time Zone {hr}
  215,                                    !- Elevation {m}
  City;                                   !- Terrain

OS:SimulationControl,
  {b071086b-e51e-428a-ad7d-298e1a6ff2d8}, !- Handle
  ,                                       !- Do Zone Sizing Calculation
  ,                                       !- Do System Sizing Calculation
  ,                                       !- Do Plant Sizing Calculation
  No,                                     !- Run Simulation for Sizing Periods
  Yes;                                    !- Run Simulation for Weather File Run Periods

OS:Sizing:Parameters,
  {b1109a85-1d15-4ab2-b825-d788571b4351}, !- Handle
  1.25,                                   !- Heating Sizing Factor
  1.15;                                   !- Cooling Sizing Factor

OS:Timestep,
  {1f4095ff-5e55-407e-a93f-0905e7bc4985}, !- Handle
  1;                                      !- Number of Timesteps per Hour

OS:ShadowCalculation,
  {63548401-019b-4f58-bcf7-73afb4a68ddd}, !- Handle
  20,                                     !- Calculation Frequency
  15000;                                  !- Maximum Figures in Shadow Overlap Calculations

OS:HeatBalanceAlgorithm,
  {ea382ca5-1761-4e78-8977-a656830f2202}, !- Handle
  ConductionTransferFunction,             !- Algorithm
  200;                                    !- Surface Temperature Upper Limit {C}

OS:RunPeriod,
  {1ff628ce-3379-4166-8758-7075eb258761}, !- Handle
  Run Period 1,                           !- Name
  1,                                      !- Begin Month
  1,                                      !- Begin Day of Month
  12,                                     !- End Month
  31,                                     !- End Day of Month
  ,                                       !- Use Weather File Holidays and Special Days
  ,                                       !- Use Weather File Daylight Saving Period
  ,                                       !- Apply Weekend Holiday Rule
  ,                                       !- Use Weather File Rain Indicators
  ,                                       !- Use Weather File Snow Indicators
  ;                                       !- Number of Times Runperiod to be Repeated

OS:LifeCycleCost:Parameters,
  {095f84fb-692f-4cf4-a660-1643df4fd18f}, !- Handle
  ,                                       !- Analysis Type
  ,                                       !- Discounting Convention
  ,                                       !- Inflation Approach
  ,                                       !- Real Discount Rate
  ,                                       !- Nominal Discount Rate
  ,                                       !- Inflation
  ,                                       !- Base Date Month
  ,                                       !- Base Date Year
  ,                                       !- Service Date Month
  ,                                       !- Service Date Year
  ;                                       !- Length of Study Period in Years

OS:YearDescription,
  {4f8fa37c-3085-4663-9560-bb57027f6156}, !- Handle
  2018,                                   !- Calendar Year
  ,                                       !- Day of Week for Start Day
  ;                                       !- Is Leap Year

OS:WeatherFile,
  {c72ef8ce-28c4-477b-8124-e16e8fe837a8}, !- Handle
  Buffalo Niagara Intl Ap,                !- City
  NY,                                     !- State Province Region
  USA,                                    !- Country
  TMY3,                                   !- Data Source
  725280,                                 !- WMO Number
  42.93,                                  !- Latitude {deg}
  -78.73,                                 !- Longitude {deg}
  -5,                                     !- Time Zone {hr}
  215,                                    !- Elevation {m}
  file:////Users/tkwasnik/github/urbanopt-example-geojson-reopt-project/weather/USA_NY_Buffalo-Greater.Buffalo.Intl.AP.725280_TMY3.epw, !- Url
  ;                                       !- Checksum

OS:Site:WaterMainsTemperature,
  {310474f6-4811-459b-9cdb-d02d791e157c}, !- Handle
  Correlation,                            !- Calculation Method
  ,                                       !- Temperature Schedule Name
  8.96666666666667,                       !- Annual Average Outdoor Air Temperature {C}
  26.2;                                   !- Maximum Difference In Monthly Average Outdoor Air Temperatures {deltaC}

OS:SizingPeriod:DesignDay,
  {0731f026-bd12-4eff-a8ec-1064144124d5}, !- Handle
  Buffalo Niagara Intl Ap Ann Clg .4% Condns WB=>MDB, !- Name
  27.8,                                   !- Maximum Dry-Bulb Temperature {C}
  9.3,                                    !- Daily Dry-Bulb Temperature Range {deltaC}
  23.8,                                   !- Humidity Indicating Conditions at Maximum Dry-Bulb
  98769,                                  !- Barometric Pressure {Pa}
  5.7,                                    !- Wind Speed {m/s}
  240,                                    !- Wind Direction {deg}
  0,                                      !- Sky Clearness
  0,                                      !- Rain Indicator
  0,                                      !- Snow Indicator
  21,                                     !- Day of Month
  7,                                      !- Month
  SummerDesignDay,                        !- Day Type
  0,                                      !- Daylight Saving Time Indicator
  Wetbulb,                                !- Humidity Indicating Type
  ,                                       !- Humidity Indicating Day Schedule Name
  DefaultMultipliers,                     !- Dry-Bulb Temperature Range Modifier Type
  ,                                       !- Dry-Bulb Temperature Range Modifier Schedule Name
  ASHRAETau,                              !- Solar Model Indicator
  ,                                       !- Beam Solar Day Schedule Name
  ,                                       !- Diffuse Solar Day Schedule Name
  0.462,                                  !- ASHRAE Taub {dimensionless}
  2.001;                                  !- ASHRAE Taud {dimensionless}

OS:SizingPeriod:DesignDay,
  {afeb30c1-3a0c-45c1-8639-792a400a1522}, !- Handle
  Buffalo Niagara Intl Ap Ann Clg .4% Condns DB=>MWB, !- Name
  30.3,                                   !- Maximum Dry-Bulb Temperature {C}
  9.3,                                    !- Daily Dry-Bulb Temperature Range {deltaC}
  21.8,                                   !- Humidity Indicating Conditions at Maximum Dry-Bulb
  98769,                                  !- Barometric Pressure {Pa}
  5.7,                                    !- Wind Speed {m/s}
  240,                                    !- Wind Direction {deg}
  0,                                      !- Sky Clearness
  0,                                      !- Rain Indicator
  0,                                      !- Snow Indicator
  21,                                     !- Day of Month
  7,                                      !- Month
  SummerDesignDay,                        !- Day Type
  0,                                      !- Daylight Saving Time Indicator
  Wetbulb,                                !- Humidity Indicating Type
  ,                                       !- Humidity Indicating Day Schedule Name
  DefaultMultipliers,                     !- Dry-Bulb Temperature Range Modifier Type
  ,                                       !- Dry-Bulb Temperature Range Modifier Schedule Name
  ASHRAETau,                              !- Solar Model Indicator
  ,                                       !- Beam Solar Day Schedule Name
  ,                                       !- Diffuse Solar Day Schedule Name
  0.462,                                  !- ASHRAE Taub {dimensionless}
  2.001;                                  !- ASHRAE Taud {dimensionless}

OS:SizingPeriod:DesignDay,
  {3435197e-bc2d-4060-a3a2-997ae91bc236}, !- Handle
  Buffalo Niagara Intl Ap Ann Htg 99.6% Condns DB, !- Name
  -16.3,                                  !- Maximum Dry-Bulb Temperature {C}
  0,                                      !- Daily Dry-Bulb Temperature Range {deltaC}
  -16.3,                                  !- Humidity Indicating Conditions at Maximum Dry-Bulb
  98769,                                  !- Barometric Pressure {Pa}
  5.1,                                    !- Wind Speed {m/s}
  270,                                    !- Wind Direction {deg}
  0,                                      !- Sky Clearness
  0,                                      !- Rain Indicator
  0,                                      !- Snow Indicator
  21,                                     !- Day of Month
  1,                                      !- Month
  WinterDesignDay,                        !- Day Type
  0,                                      !- Daylight Saving Time Indicator
  Wetbulb,                                !- Humidity Indicating Type
  ,                                       !- Humidity Indicating Day Schedule Name
  DefaultMultipliers,                     !- Dry-Bulb Temperature Range Modifier Type
  ,                                       !- Dry-Bulb Temperature Range Modifier Schedule Name
  ASHRAEClearSky;                         !- Solar Model Indicator

OS:ClimateZones,
  {0bd2b5db-3ff0-4b75-aa64-b5414175a650}, !- Handle
  ,                                       !- Active Institution
  ,                                       !- Active Year
  ASHRAE,                                 !- Climate Zone Institution Name 1
  ANSI/ASHRAE Standard 169,               !- Climate Zone Document Name 1
  2006,                                   !- Climate Zone Document Year 1
  6A;                                     !- Climate Zone Value 1

OS:Node,
  {94ca152b-f3e7-40d5-b3c0-090570133ec8}, !- Handle
  Node 1,                                 !- Name
  {269a1438-2feb-4614-b7fd-d49adb72cd8a}, !- Inlet Port
  ;                                       !- Outlet Port

OS:Connection,
  {269a1438-2feb-4614-b7fd-d49adb72cd8a}, !- Handle
  {459954c3-fd3f-49dc-bc84-029c47998ee1}, !- Name
  ,                                       !- Source Object
  11,                                     !- Outlet Port
  {94ca152b-f3e7-40d5-b3c0-090570133ec8}, !- Target Object
  2;                                      !- Inlet Port

OS:PortList,
  {0d69d22b-8935-409d-bbf5-3f2d0f5b8cde}, !- Handle
  {56bcf440-5bf3-4603-b071-e0ca5e7bda54}, !- Name
  ;                                       !- HVAC Component

OS:PortList,
  {d889f38f-6fb0-4b4b-8348-26ab6460d79b}, !- Handle
  {28cc6cef-9443-4090-94d7-7601b3233d07}, !- Name
  ;                                       !- HVAC Component

OS:PortList,
  {71d33e99-a7a3-46ea-ae47-455f3460df06}, !- Handle
  {9fd275e6-715a-4daa-8c00-a1b5932e7aaf}, !- Name
  ;                                       !- HVAC Component

OS:Node,
  {b1738249-f343-43de-9866-01cfbd7eb0e8}, !- Handle
  Node 2,                                 !- Name
  {3dd175cb-7488-47a8-8cba-090ecc9e7aac}, !- Inlet Port
  ;                                       !- Outlet Port

OS:Connection,
  {3dd175cb-7488-47a8-8cba-090ecc9e7aac}, !- Handle
  {0114256f-03fc-4803-a1b0-d9cc35d6a110}, !- Name
  ,                                       !- Source Object
  11,                                     !- Outlet Port
  {b1738249-f343-43de-9866-01cfbd7eb0e8}, !- Target Object
  2;                                      !- Inlet Port

OS:PortList,
  {9a41307c-e5b9-4841-a6f9-1541c78bcf70}, !- Handle
  {082f64f7-8f51-44c8-80f8-e54551b970c4}, !- Name
  ;                                       !- HVAC Component

OS:PortList,
  {03c367d3-5e1b-4410-8a7c-6cf4d5043da8}, !- Handle
  {2894d624-09eb-4b8d-9425-78132f8df3b6}, !- Name
  ;                                       !- HVAC Component

OS:PortList,
  {b7e339bb-6cfe-487c-ac9e-4016c089927b}, !- Handle
  {f3b526b1-aab6-4152-b91f-d0a2d5f9959a}, !- Name
  ;                                       !- HVAC Component

OS:Node,
  {2ec1dda6-262e-44ad-b4eb-a9911f24a843}, !- Handle
  Node 3,                                 !- Name
  {0296195a-c3b0-45df-b1fe-5d84c1db3a38}, !- Inlet Port
  ;                                       !- Outlet Port

OS:Connection,
  {0296195a-c3b0-45df-b1fe-5d84c1db3a38}, !- Handle
  {f61ef766-54af-4236-9510-f624c1527489}, !- Name
  ,                                       !- Source Object
  11,                                     !- Outlet Port
  {2ec1dda6-262e-44ad-b4eb-a9911f24a843}, !- Target Object
  2;                                      !- Inlet Port

OS:PortList,
  {bb2bcc6e-7ab3-419a-b37a-8b40d5966f11}, !- Handle
  {235e971f-0f30-4fd0-b258-ff41f99e4e14}, !- Name
  ;                                       !- HVAC Component

OS:PortList,
  {93efb82c-4977-40da-aa21-85dd0a4d51db}, !- Handle
  {a2c82b5f-1e33-4877-b713-41cc44799d19}, !- Name
  ;                                       !- HVAC Component

OS:PortList,
  {655e0e05-e715-4d9c-b970-601e0e0ca93f}, !- Handle
  {d918918b-762a-4fb7-8660-387d6a496aa2}, !- Name
  ;                                       !- HVAC Component

OS:Node,
  {f06669c4-6d82-45af-9ac0-75c46553d34c}, !- Handle
  Node 4,                                 !- Name
  {48c9c8ef-7dd7-4bc5-b170-a40463f587d0}, !- Inlet Port
  ;                                       !- Outlet Port

OS:Connection,
  {48c9c8ef-7dd7-4bc5-b170-a40463f587d0}, !- Handle
  {d03f802e-6d22-43d8-a390-76bc23220d48}, !- Name
  ,                                       !- Source Object
  11,                                     !- Outlet Port
  {f06669c4-6d82-45af-9ac0-75c46553d34c}, !- Target Object
  2;                                      !- Inlet Port

OS:PortList,
  {d0567df3-613d-4ed8-8296-d95530a37233}, !- Handle
  {fa7869d8-53bf-4cd8-9aa3-0ec82988e7ec}, !- Name
  ;                                       !- HVAC Component

OS:PortList,
  {8788e197-e0b2-4942-8e24-41fa3fe80e7d}, !- Handle
  {0225fe6e-5979-4635-9593-a3bad996ffb3}, !- Name
  ;                                       !- HVAC Component

OS:PortList,
  {f85331bb-33de-4ea6-95cc-91be6f90652b}, !- Handle
  {de4eab1b-10d1-4317-92d8-6c8b86223261}, !- Name
  ;                                       !- HVAC Component

OS:Node,
  {bab7ad54-83b7-47ab-88ac-a9f34597b632}, !- Handle
  Node 5,                                 !- Name
  {10d70401-600e-4664-abc6-d865bc764602}, !- Inlet Port
  ;                                       !- Outlet Port

OS:Connection,
  {10d70401-600e-4664-abc6-d865bc764602}, !- Handle
  {e7560c77-0261-4dd3-8d0b-7d04ac30839c}, !- Name
  ,                                       !- Source Object
  11,                                     !- Outlet Port
  {bab7ad54-83b7-47ab-88ac-a9f34597b632}, !- Target Object
  2;                                      !- Inlet Port

OS:PortList,
  {ae01e402-804a-4ae5-abcf-324b5c3cfe21}, !- Handle
  {d792b323-2962-4889-a6de-2ea98d6f385d}, !- Name
  ;                                       !- HVAC Component

OS:PortList,
  {6c6eb55a-2369-4735-9140-f3a646fb4085}, !- Handle
  {d76127ed-cc9b-489f-9a4a-8350b555bfa7}, !- Name
  ;                                       !- HVAC Component

OS:PortList,
  {af6c74e9-9f72-41f0-8874-303aa9e95fdf}, !- Handle
  {cba25853-c5fd-4321-8a32-3638cb78ddd5}, !- Name
  ;                                       !- HVAC Component

OS:Node,
  {eed7c7c5-6e59-461d-a14a-c24fe8249487}, !- Handle
  Node 6,                                 !- Name
  {50515e8f-cc2a-48dc-b7d2-296f9f6ce4dc}, !- Inlet Port
  ;                                       !- Outlet Port

OS:Connection,
  {50515e8f-cc2a-48dc-b7d2-296f9f6ce4dc}, !- Handle
  {ab143b21-8b3b-4b38-85c1-d8be22c5c699}, !- Name
  ,                                       !- Source Object
  11,                                     !- Outlet Port
  {eed7c7c5-6e59-461d-a14a-c24fe8249487}, !- Target Object
  2;                                      !- Inlet Port

OS:PortList,
  {e3f7d609-5bd7-4d6e-a613-fd6b693a8fa2}, !- Handle
  {e4dfe58a-6c79-4125-8ada-060e8910e065}, !- Name
  ;                                       !- HVAC Component

OS:PortList,
  {d4dea7c9-bc67-4dd2-a504-408e82cb211f}, !- Handle
  {20d36208-4241-475e-b0d4-b51dd41ecfb6}, !- Name
  ;                                       !- HVAC Component

OS:PortList,
  {66a4d73c-7c13-4994-b88f-35a0dc4e8f77}, !- Handle
  {1a9d39de-c654-4458-944b-4d9e10cb4860}, !- Name
  ;                                       !- HVAC Component

OS:Node,
  {14c24fc6-40aa-4826-aefb-1f5a60d12b8d}, !- Handle
  Node 7,                                 !- Name
  {f6155bf7-82cb-43d7-865a-a6ae846e03d3}, !- Inlet Port
  ;                                       !- Outlet Port

OS:Connection,
  {f6155bf7-82cb-43d7-865a-a6ae846e03d3}, !- Handle
  {58e6acd7-e035-46f0-9386-eb6958267c8e}, !- Name
  ,                                       !- Source Object
  11,                                     !- Outlet Port
  {14c24fc6-40aa-4826-aefb-1f5a60d12b8d}, !- Target Object
  2;                                      !- Inlet Port

OS:PortList,
  {ed3549c3-cf5e-4b83-a615-953eb56c60bc}, !- Handle
  {4b8d79b2-a61b-40be-842b-dacbd485fbf5}, !- Name
  ;                                       !- HVAC Component

OS:PortList,
  {1bceaaaf-8e23-47af-92a1-201366a4b362}, !- Handle
  {9801bcab-3ea3-47d4-89a1-9c229b43598a}, !- Name
  ;                                       !- HVAC Component

OS:PortList,
  {1938a6d7-7da2-4b4c-8015-8ff758d8b4bb}, !- Handle
  {7598ea50-bb6c-4dd8-90d6-0e19e7e6b99b}, !- Name
  ;                                       !- HVAC Component

OS:Node,
  {1a6f189f-a7fc-4c44-9caa-8311afbdd084}, !- Handle
  Node 8,                                 !- Name
  {3c7170c9-b608-4388-befa-afc4872bbac5}, !- Inlet Port
  ;                                       !- Outlet Port

OS:Connection,
  {3c7170c9-b608-4388-befa-afc4872bbac5}, !- Handle
  {b3107b00-4eda-498d-8ad2-b2f30e57a85d}, !- Name
  ,                                       !- Source Object
  11,                                     !- Outlet Port
  {1a6f189f-a7fc-4c44-9caa-8311afbdd084}, !- Target Object
  2;                                      !- Inlet Port

OS:PortList,
  {e222956b-2eb9-4477-ba49-8aeffff7590c}, !- Handle
  {506a4d59-a45e-4881-9e1a-b124e5af4fd3}, !- Name
  ;                                       !- HVAC Component

OS:PortList,
  {86cbed31-43c1-4a61-9843-4d2ac3e68993}, !- Handle
  {3187bc5f-e603-4a42-be43-3fec04cd7e87}, !- Name
  ;                                       !- HVAC Component

OS:PortList,
  {71865c32-84b5-4fa0-8aa2-452c6326fc84}, !- Handle
  {044422a9-b89a-44bb-a297-6ff447ecf3fe}, !- Name
  ;                                       !- HVAC Component

OS:Node,
  {8c8c14a1-52b3-4dd3-a51e-4d6fd1d1da32}, !- Handle
  Node 9,                                 !- Name
  {dfc693cb-6b79-4333-9180-86048dd2368c}, !- Inlet Port
  ;                                       !- Outlet Port

OS:Connection,
  {dfc693cb-6b79-4333-9180-86048dd2368c}, !- Handle
  {ad254d04-135d-4a50-9d9d-dfe087c59dec}, !- Name
  ,                                       !- Source Object
  11,                                     !- Outlet Port
  {8c8c14a1-52b3-4dd3-a51e-4d6fd1d1da32}, !- Target Object
  2;                                      !- Inlet Port

OS:PortList,
  {0081776c-9898-4fb3-bc55-5754d2171810}, !- Handle
  {99c9bf31-17d1-401d-b0d6-eb7a4e0a1560}, !- Name
  ;                                       !- HVAC Component

OS:PortList,
  {eb2feff7-46e5-4d02-b7fe-a8b7d23c8a93}, !- Handle
  {6cb562ee-ac29-4efa-b3ea-e85bcabb51d1}, !- Name
  ;                                       !- HVAC Component

OS:PortList,
  {158b911d-7955-4e37-8d13-d147c9a7b6db}, !- Handle
  {4d88297b-d263-4760-a1df-a4d3f0601502}, !- Name
  ;                                       !- HVAC Component

OS:Node,
  {d44b9e48-42ad-45c4-93ab-ecc1ad6e0d46}, !- Handle
  Node 10,                                !- Name
  {17b6ef88-670a-45a5-90ba-c4b63d95b896}, !- Inlet Port
  ;                                       !- Outlet Port

OS:Connection,
  {17b6ef88-670a-45a5-90ba-c4b63d95b896}, !- Handle
  {e7b22c7b-fe53-4ede-870b-5136fa9f8e54}, !- Name
  ,                                       !- Source Object
  11,                                     !- Outlet Port
  {d44b9e48-42ad-45c4-93ab-ecc1ad6e0d46}, !- Target Object
  2;                                      !- Inlet Port

OS:PortList,
  {cd05483a-1540-427f-b981-4624ce3e01a0}, !- Handle
  {cbfd5103-67bf-4f9c-aa8c-849747170981}, !- Name
  ;                                       !- HVAC Component

OS:PortList,
  {ca71c676-7d2d-4a02-a1f9-69e5c081d442}, !- Handle
  {e26cdfda-ecc2-4c14-b5cb-4a670b02413a}, !- Name
  ;                                       !- HVAC Component

OS:PortList,
  {8bf80b9d-9428-4602-bf88-54ca99c866f8}, !- Handle
  {c4eda6fd-fac7-4411-96a8-ad6a48aa4d57}, !- Name
  ;                                       !- HVAC Component

OS:Node,
  {7045b4a9-32ab-4d5e-8a68-050e66aa4fb0}, !- Handle
  Node 11,                                !- Name
  {6da9a9bb-3b11-4688-b98b-d5283b6aba17}, !- Inlet Port
  ;                                       !- Outlet Port

OS:Connection,
  {6da9a9bb-3b11-4688-b98b-d5283b6aba17}, !- Handle
  {3135a28b-bfb7-4fcf-8e3b-3222524f3784}, !- Name
  ,                                       !- Source Object
  11,                                     !- Outlet Port
  {7045b4a9-32ab-4d5e-8a68-050e66aa4fb0}, !- Target Object
  2;                                      !- Inlet Port

OS:PortList,
  {bd8c2d11-0a6f-4e8f-bb53-ae623e2ecaaa}, !- Handle
  {1af5d162-df7f-4029-bcd5-11719d02ddd9}, !- Name
  ;                                       !- HVAC Component

OS:PortList,
  {83149944-bc09-49b1-a92f-16f476aa6344}, !- Handle
  {d59fb441-2fcf-4c59-b74b-9dea50b8cd83}, !- Name
  ;                                       !- HVAC Component

OS:PortList,
  {583f56f9-1bd1-45a9-93c1-f1382dd57147}, !- Handle
  {93b00d8d-ea87-49ad-aafe-4d8ffe3e47bd}, !- Name
  ;                                       !- HVAC Component

OS:Node,
  {d53e921e-ddcc-4da7-aaa7-d05ec3a84401}, !- Handle
  Node 12,                                !- Name
  {d209a28d-fb45-4164-8824-d1f0bceeef73}, !- Inlet Port
  ;                                       !- Outlet Port

OS:Connection,
  {d209a28d-fb45-4164-8824-d1f0bceeef73}, !- Handle
  {a634140f-fc77-4723-86a2-98b39a0381ab}, !- Name
  ,                                       !- Source Object
  11,                                     !- Outlet Port
  {d53e921e-ddcc-4da7-aaa7-d05ec3a84401}, !- Target Object
  2;                                      !- Inlet Port

OS:PortList,
  {b32fa4a6-014c-42b5-83e5-8ed0a72b6aa6}, !- Handle
  {22d1a84a-b652-40f7-a947-f6e3fca21b3c}, !- Name
  ;                                       !- HVAC Component

OS:PortList,
  {ea936ca3-5e49-48ad-a95e-43bd3c1ad8aa}, !- Handle
  {625f4d57-5770-46b4-b997-b8d36514b9c7}, !- Name
  ;                                       !- HVAC Component

OS:PortList,
  {eb0ef727-4aa0-4a62-b2b9-8b58da7928d5}, !- Handle
  {60bba064-74fd-498a-b1f1-5c5dbb8e2f87}, !- Name
  ;                                       !- HVAC Component

OS:Node,
  {a6eb5cd3-aaf1-47f9-9e73-3e368080de17}, !- Handle
  Node 13,                                !- Name
  {8b120c57-7bf2-4e01-a41d-7f5634b0fc27}, !- Inlet Port
  ;                                       !- Outlet Port

OS:Connection,
  {8b120c57-7bf2-4e01-a41d-7f5634b0fc27}, !- Handle
  {02285fc1-638b-4d2a-8378-7b7518245196}, !- Name
  ,                                       !- Source Object
  11,                                     !- Outlet Port
  {a6eb5cd3-aaf1-47f9-9e73-3e368080de17}, !- Target Object
  2;                                      !- Inlet Port

OS:PortList,
  {aafc75fb-3a45-470c-88a3-1e35ba6337e4}, !- Handle
  {19000eca-139d-41d0-adde-86df97474987}, !- Name
  ;                                       !- HVAC Component

OS:PortList,
  {de1637ba-2fd4-4984-834c-89e47484de98}, !- Handle
  {624743ba-5a84-4a9b-bb25-d88e1b50ad5d}, !- Name
  ,                                       !- HVAC Component
  {07404eb6-e9d6-4fac-979d-753b3680078e}; !- Port 1

OS:PortList,
  {5cc935aa-bf17-4f37-b6d2-65275407d5d8}, !- Handle
  {308c4cfc-0871-4f2d-a617-4a3f0c3d7ae5}, !- Name
  ;                                       !- HVAC Component

OS:Node,
  {9956bb5f-c0a0-484d-9dc4-aa7de0bf42be}, !- Handle
  Node 14,                                !- Name
  {f7756036-5ce2-48a5-add8-3f94ebc7e2aa}, !- Inlet Port
  ;                                       !- Outlet Port

OS:Connection,
  {f7756036-5ce2-48a5-add8-3f94ebc7e2aa}, !- Handle
  {c1460690-188d-4b3d-9cb6-712558dc6b62}, !- Name
  ,                                       !- Source Object
  11,                                     !- Outlet Port
  {9956bb5f-c0a0-484d-9dc4-aa7de0bf42be}, !- Target Object
  2;                                      !- Inlet Port

OS:PortList,
  {388a6170-cc48-416d-b6a8-68d52bc6cdb0}, !- Handle
  {639fbff8-abe2-4daa-8846-1a3562cc4585}, !- Name
  ;                                       !- HVAC Component

OS:PortList,
  {ee7bef98-e649-45cd-9cc1-5be886fee5de}, !- Handle
  {e9dee596-349d-45f6-8c1f-f4238a2df272}, !- Name
  ,                                       !- HVAC Component
  {88acbd4f-c782-47aa-92db-e34d69c1173d}; !- Port 1

OS:PortList,
  {ca02e07a-c03a-44c6-8f22-7532b11fc7e2}, !- Handle
  {4afed2a5-d03c-4741-8d4e-f0da13c898ca}, !- Name
  ;                                       !- HVAC Component

OS:Node,
  {b241f21d-ac05-40d0-aee7-f0102d768382}, !- Handle
  Node 15,                                !- Name
  {a02ae3f0-9343-4012-bb8f-89bb5fa90a6c}, !- Inlet Port
  ;                                       !- Outlet Port

OS:Connection,
  {a02ae3f0-9343-4012-bb8f-89bb5fa90a6c}, !- Handle
  {52de3811-5831-46e4-b569-05a20ad682a0}, !- Name
  ,                                       !- Source Object
  11,                                     !- Outlet Port
  {b241f21d-ac05-40d0-aee7-f0102d768382}, !- Target Object
  2;                                      !- Inlet Port

OS:PortList,
  {02b63247-f4af-4517-97d6-e816688685bd}, !- Handle
  {933f8a8b-5bc8-483b-ad9e-04019dffa506}, !- Name
  ;                                       !- HVAC Component

OS:PortList,
  {a6f34853-4f0e-4453-990b-afb4536e1262}, !- Handle
  {06b350a3-97e2-46d7-97e6-d6a9baba32cd}, !- Name
  ,                                       !- HVAC Component
  {01bc22d7-cc43-49a6-bf6f-1db68ca206ac}; !- Port 1

OS:PortList,
  {24d1b183-f993-4790-85fb-f6d1d029145b}, !- Handle
  {d2d5a814-8c76-4a5d-a044-d30b77dd3313}, !- Name
  ;                                       !- HVAC Component

OS:Node,
  {5222d5b5-c7ee-465d-b2ce-5a431fe55d96}, !- Handle
  Node 16,                                !- Name
  {7d42e9fb-83d9-410a-9366-e59a7a3c8989}, !- Inlet Port
  ;                                       !- Outlet Port

OS:Connection,
  {7d42e9fb-83d9-410a-9366-e59a7a3c8989}, !- Handle
  {0891f395-c593-4044-89ea-2df048f76543}, !- Name
  ,                                       !- Source Object
  11,                                     !- Outlet Port
  {5222d5b5-c7ee-465d-b2ce-5a431fe55d96}, !- Target Object
  2;                                      !- Inlet Port

OS:PortList,
  {94e99128-daa3-41a0-9b39-5e82f2318bb4}, !- Handle
  {0f463fe5-5445-4b14-b1f6-9fd2ccacc39f}, !- Name
  ;                                       !- HVAC Component

OS:PortList,
  {8d321437-f54f-4fbe-9b8b-698f03e4823b}, !- Handle
  {2e410885-46d7-4695-9b70-5632ae67ddbd}, !- Name
  ;                                       !- HVAC Component

OS:PortList,
  {26f24f42-c377-49b3-ac14-03a96f56e2c7}, !- Handle
  {93fd7e5b-755f-4fcd-a2a0-d4a04d957d41}, !- Name
  ;                                       !- HVAC Component

OS:Node,
  {c55dec19-966a-429a-8915-926c58709645}, !- Handle
  Node 17,                                !- Name
  {d6943a62-60b9-41e4-98d9-58887fcaabf4}, !- Inlet Port
  ;                                       !- Outlet Port

OS:Connection,
  {d6943a62-60b9-41e4-98d9-58887fcaabf4}, !- Handle
  {872f7603-07ec-4e24-9562-e931258ed4a4}, !- Name
  ,                                       !- Source Object
  11,                                     !- Outlet Port
  {c55dec19-966a-429a-8915-926c58709645}, !- Target Object
  2;                                      !- Inlet Port

OS:PortList,
  {6ec8c3d6-0ab5-4b68-add9-dfba4f114788}, !- Handle
  {fdf857c1-9d95-488f-a7ec-4ff4321028a9}, !- Name
  ;                                       !- HVAC Component

OS:PortList,
  {597465da-8617-472e-8877-3b755a73d620}, !- Handle
  {8eab4968-474f-407d-b59f-fde2b9be1976}, !- Name
  ;                                       !- HVAC Component

OS:PortList,
  {c453e160-e0bf-4d70-b435-8b083f611efe}, !- Handle
  {d4c42c23-ea8b-4a7a-b521-aaedae18583a}, !- Name
  ;                                       !- HVAC Component

OS:Node,
  {f4ddac0a-fcbb-478a-a197-a63796f3c2c6}, !- Handle
  Node 18,                                !- Name
  {f36b1c0a-7d73-4e87-8919-a9d7b0ff2d1d}, !- Inlet Port
  ;                                       !- Outlet Port

OS:Connection,
  {f36b1c0a-7d73-4e87-8919-a9d7b0ff2d1d}, !- Handle
  {3ea3d4cc-2107-4c79-9225-c6e717a45142}, !- Name
  ,                                       !- Source Object
  11,                                     !- Outlet Port
  {f4ddac0a-fcbb-478a-a197-a63796f3c2c6}, !- Target Object
  2;                                      !- Inlet Port

OS:PortList,
  {aefb7f1b-52ca-43e8-84de-e0daf883da10}, !- Handle
  {800f8be4-9820-453d-95aa-9763e01acc63}, !- Name
  ;                                       !- HVAC Component

OS:PortList,
  {cae4ff00-5e9c-44f4-9d16-83e9183a95b1}, !- Handle