
OS:Version,
  {b81b5f4b-68f6-400a-8073-d4c2857c19b4}, !- Handle
  2.8.0;                                  !- Version Identifier

OS:Facility,
  {46357a9b-0200-4334-be45-4140daa87c44}; !- Handle

OS:Site,
  {64813b42-773b-4b69-81a0-0a587efacdab}, !- Handle
  Buffalo Niagara Intl Ap_NY_USA,         !- Name
  42.8143935638667,                       !- Latitude {deg}
  -78.8496116364065,                      !- Longitude {deg}
  -5,                                     !- Time Zone {hr}
  215,                                    !- Elevation {m}
  City;                                   !- Terrain

OS:SimulationControl,
  {4c45ea24-cdcc-4dbd-8f9a-28198aa9a516}, !- Handle
  ,                                       !- Do Zone Sizing Calculation
  ,                                       !- Do System Sizing Calculation
  ,                                       !- Do Plant Sizing Calculation
  No,                                     !- Run Simulation for Sizing Periods
  Yes;                                    !- Run Simulation for Weather File Run Periods

OS:Sizing:Parameters,
  {58078195-39d6-4ced-8488-d0441cf38f29}, !- Handle
  1.25,                                   !- Heating Sizing Factor
  1.15;                                   !- Cooling Sizing Factor

OS:Timestep,
  {bccb4f0d-ed89-48dc-ac19-ab7f64638e14}, !- Handle
  1;                                      !- Number of Timesteps per Hour

OS:ShadowCalculation,
  {fe7529e8-0806-47e4-ba11-2e0df3ba93a5}, !- Handle
  20,                                     !- Calculation Frequency
  15000;                                  !- Maximum Figures in Shadow Overlap Calculations

OS:HeatBalanceAlgorithm,
  {63e26d66-e135-4c8c-8fef-9487163f310c}, !- Handle
  ConductionTransferFunction,             !- Algorithm
  200;                                    !- Surface Temperature Upper Limit {C}

OS:RunPeriod,
  {7c2a546e-a24b-4575-9c1f-85cc74faec62}, !- Handle
  Run Period 1,                           !- Name
  1,                                      !- Begin Month
  1,                                      !- Begin Day of Month
  12,                                     !- End Month
  31,                                     !- End Day of Month
  ,                                       !- Use Weather File Holidays and Special Days
  ,                                       !- Use Weather File Daylight Saving Period
  ,                                       !- Apply Weekend Holiday Rule
  ,                                       !- Use Weather File Rain Indicators
  ,                                       !- Use Weather File Snow Indicators
  ;                                       !- Number of Times Runperiod to be Repeated

OS:LifeCycleCost:Parameters,
  {61bff7c4-ab08-4843-9b6e-13586365a872}, !- Handle
  ,                                       !- Analysis Type
  ,                                       !- Discounting Convention
  ,                                       !- Inflation Approach
  ,                                       !- Real Discount Rate
  ,                                       !- Nominal Discount Rate
  ,                                       !- Inflation
  ,                                       !- Base Date Month
  ,                                       !- Base Date Year
  ,                                       !- Service Date Month
  ,                                       !- Service Date Year
  ;                                       !- Length of Study Period in Years

OS:YearDescription,
  {9c70a666-8626-4269-a466-b6da00ac2b50}, !- Handle
  2018,                                   !- Calendar Year
  ,                                       !- Day of Week for Start Day
  ;                                       !- Is Leap Year

OS:WeatherFile,
  {1c3bfacd-68b5-4bd0-b074-07f0f8549eb1}, !- Handle
  Buffalo Niagara Intl Ap,                !- City
  NY,                                     !- State Province Region
  USA,                                    !- Country
  TMY3,                                   !- Data Source
  725280,                                 !- WMO Number
  42.93,                                  !- Latitude {deg}
  -78.73,                                 !- Longitude {deg}
  -5,                                     !- Time Zone {hr}
  215,                                    !- Elevation {m}
  file:////Users/tkwasnik/github/urbanopt-example-geojson-reopt-project/weather/USA_NY_Buffalo-Greater.Buffalo.Intl.AP.725280_TMY3.epw, !- Url
  ;                                       !- Checksum

OS:Site:WaterMainsTemperature,
  {461c4de1-0eb6-45bc-81ef-5870f974a69c}, !- Handle
  Correlation,                            !- Calculation Method
  ,                                       !- Temperature Schedule Name
  8.96666666666667,                       !- Annual Average Outdoor Air Temperature {C}
  26.2;                                   !- Maximum Difference In Monthly Average Outdoor Air Temperatures {deltaC}

OS:SizingPeriod:DesignDay,
  {d2d0e5cc-76b0-4569-b7cc-ada19655b61a}, !- Handle
  Buffalo Niagara Intl Ap Ann Clg .4% Condns WB=>MDB, !- Name
  27.8,                                   !- Maximum Dry-Bulb Temperature {C}
  9.3,                                    !- Daily Dry-Bulb Temperature Range {deltaC}
  23.8,                                   !- Humidity Indicating Conditions at Maximum Dry-Bulb
  98769,                                  !- Barometric Pressure {Pa}
  5.7,                                    !- Wind Speed {m/s}
  240,                                    !- Wind Direction {deg}
  0,                                      !- Sky Clearness
  0,                                      !- Rain Indicator
  0,                                      !- Snow Indicator
  21,                                     !- Day of Month
  7,                                      !- Month
  SummerDesignDay,                        !- Day Type
  0,                                      !- Daylight Saving Time Indicator
  Wetbulb,                                !- Humidity Indicating Type
  ,                                       !- Humidity Indicating Day Schedule Name
  DefaultMultipliers,                     !- Dry-Bulb Temperature Range Modifier Type
  ,                                       !- Dry-Bulb Temperature Range Modifier Schedule Name
  ASHRAETau,                              !- Solar Model Indicator
  ,                                       !- Beam Solar Day Schedule Name
  ,                                       !- Diffuse Solar Day Schedule Name
  0.462,                                  !- ASHRAE Taub {dimensionless}
  2.001;                                  !- ASHRAE Taud {dimensionless}

OS:SizingPeriod:DesignDay,
  {6035d06b-0ac0-4443-aa6f-8b0ae3f2319e}, !- Handle
  Buffalo Niagara Intl Ap Ann Clg .4% Condns DB=>MWB, !- Name
  30.3,                                   !- Maximum Dry-Bulb Temperature {C}
  9.3,                                    !- Daily Dry-Bulb Temperature Range {deltaC}
  21.8,                                   !- Humidity Indicating Conditions at Maximum Dry-Bulb
  98769,                                  !- Barometric Pressure {Pa}
  5.7,                                    !- Wind Speed {m/s}
  240,                                    !- Wind Direction {deg}
  0,                                      !- Sky Clearness
  0,                                      !- Rain Indicator
  0,                                      !- Snow Indicator
  21,                                     !- Day of Month
  7,                                      !- Month
  SummerDesignDay,                        !- Day Type
  0,                                      !- Daylight Saving Time Indicator
  Wetbulb,                                !- Humidity Indicating Type
  ,                                       !- Humidity Indicating Day Schedule Name
  DefaultMultipliers,                     !- Dry-Bulb Temperature Range Modifier Type
  ,                                       !- Dry-Bulb Temperature Range Modifier Schedule Name
  ASHRAETau,                              !- Solar Model Indicator
  ,                                       !- Beam Solar Day Schedule Name
  ,                                       !- Diffuse Solar Day Schedule Name
  0.462,                                  !- ASHRAE Taub {dimensionless}
  2.001;                                  !- ASHRAE Taud {dimensionless}

OS:SizingPeriod:DesignDay,
  {f45a30f9-1511-4a1e-bd71-4250edbafd09}, !- Handle
  Buffalo Niagara Intl Ap Ann Htg 99.6% Condns DB, !- Name
  -16.3,                                  !- Maximum Dry-Bulb Temperature {C}
  0,                                      !- Daily Dry-Bulb Temperature Range {deltaC}
  -16.3,                                  !- Humidity Indicating Conditions at Maximum Dry-Bulb
  98769,                                  !- Barometric Pressure {Pa}
  5.1,                                    !- Wind Speed {m/s}
  270,                                    !- Wind Direction {deg}
  0,                                      !- Sky Clearness
  0,                                      !- Rain Indicator
  0,                                      !- Snow Indicator
  21,                                     !- Day of Month
  1,                                      !- Month
  WinterDesignDay,                        !- Day Type
  0,                                      !- Daylight Saving Time Indicator
  Wetbulb,                                !- Humidity Indicating Type
  ,                                       !- Humidity Indicating Day Schedule Name
  DefaultMultipliers,                     !- Dry-Bulb Temperature Range Modifier Type
  ,                                       !- Dry-Bulb Temperature Range Modifier Schedule Name
  ASHRAEClearSky;                         !- Solar Model Indicator

OS:ClimateZones,
  {bae1419f-6efb-4b12-a64d-3bf860abf581}, !- Handle
  ,                                       !- Active Institution
  ,                                       !- Active Year
  ASHRAE,                                 !- Climate Zone Institution Name 1
  ANSI/ASHRAE Standard 169,               !- Climate Zone Document Name 1
  2006,                                   !- Climate Zone Document Year 1
  6A;                                     !- Climate Zone Value 1

OS:Node,
  {24bfdc73-d09e-4969-a1f4-c290e0edc942}, !- Handle
  Node 1,                                 !- Name
  {966ac34c-93f2-4f96-822c-b7a7a7735776}, !- Inlet Port
  ;                                       !- Outlet Port

OS:Connection,
  {966ac34c-93f2-4f96-822c-b7a7a7735776}, !- Handle
  {4feb486a-3ecb-4d09-b722-4d7afc8a67ee}, !- Name
  ,                                       !- Source Object
  11,                                     !- Outlet Port
  {24bfdc73-d09e-4969-a1f4-c290e0edc942}, !- Target Object
  2;                                      !- Inlet Port

OS:PortList,
  {9717d922-7969-4744-8418-11ebcff463f3}, !- Handle
  {4c5695e8-3164-491c-abb9-5a22785c1846}, !- Name
  ;                                       !- HVAC Component

OS:PortList,
  {83b03475-23ef-48c7-ab02-6800ce192687}, !- Handle
  {ae524fcc-f342-471c-bc86-7d71c0033012}, !- Name
  ;                                       !- HVAC Component

OS:PortList,
  {0ed8f989-0f8d-49e9-81e1-0cda504e3494}, !- Handle
  {424545fa-3d17-463e-9dac-2934f7e25095}, !- Name
  ;                                       !- HVAC Component

OS:Node,
  {14374832-1fd0-4f22-b036-f7b6329ee2d0}, !- Handle
  Node 2,                                 !- Name
  {1506259e-25d1-4fcf-8cc6-a80f95ae6bec}, !- Inlet Port
  ;                                       !- Outlet Port

OS:Connection,
  {1506259e-25d1-4fcf-8cc6-a80f95ae6bec}, !- Handle
  {ce0ddda7-2442-434c-8337-2a810e656c25}, !- Name
  ,                                       !- Source Object
  11,                                     !- Outlet Port
  {14374832-1fd0-4f22-b036-f7b6329ee2d0}, !- Target Object
  2;                                      !- Inlet Port

OS:PortList,
  {b61a5368-63a1-4e99-8b4b-665f16457fe7}, !- Handle
  {f0621019-eba5-4e80-b54f-00ec75a8278f}, !- Name
  ;                                       !- HVAC Component

OS:PortList,
  {81598791-2787-4308-ba45-5e2336c81f25}, !- Handle
  {54778c56-d07b-4349-a241-14fea2380ae5}, !- Name
  ;                                       !- HVAC Component

OS:PortList,
  {ad6e831f-76f4-4c1e-a73b-a230f9e5c218}, !- Handle
  {9f36654f-011c-4641-aaae-5976611262df}, !- Name
  ;                                       !- HVAC Component

OS:Node,
  {6c13594e-77a8-4ad2-9ac8-c93f32808611}, !- Handle
  Node 3,                                 !- Name
  {e93fdaaa-b698-40b0-a24b-e95b6f2a20a7}, !- Inlet Port
  ;                                       !- Outlet Port

OS:Connection,
  {e93fdaaa-b698-40b0-a24b-e95b6f2a20a7}, !- Handle
  {92c28447-b640-4183-a63f-ae3ab1c1c1b4}, !- Name
  ,                                       !- Source Object
  11,                                     !- Outlet Port
  {6c13594e-77a8-4ad2-9ac8-c93f32808611}, !- Target Object
  2;                                      !- Inlet Port

OS:PortList,
  {ac2b92ce-91e2-4af7-9231-d26dfee517ae}, !- Handle
  {27572848-bc08-4eac-b52a-941c45d7a1c8}, !- Name
  ;                                       !- HVAC Component

OS:PortList,
  {f68b65da-e08f-4a9a-9e1f-f71a823e210d}, !- Handle
  {7c1d1ea7-b854-47ba-8b0a-1b95a4e8235d}, !- Name
  ;                                       !- HVAC Component

OS:PortList,
  {d6b913e8-57fd-475a-b94a-ffaba4fe9c84}, !- Handle
  {ba6cf376-f8f2-4008-804a-377a21581f10}, !- Name
  ;                                       !- HVAC Component

OS:Node,
  {a95badbd-f178-4c17-a404-21044de72954}, !- Handle
  Node 4,                                 !- Name
  {5ae57aa5-9d57-4b47-9c6d-c8fe3d758fb5}, !- Inlet Port
  ;                                       !- Outlet Port

OS:Connection,
  {5ae57aa5-9d57-4b47-9c6d-c8fe3d758fb5}, !- Handle
  {e9543eba-6b81-4570-b29f-37ce71b7d357}, !- Name
  ,                                       !- Source Object
  11,                                     !- Outlet Port
  {a95badbd-f178-4c17-a404-21044de72954}, !- Target Object
  2;                                      !- Inlet Port

OS:PortList,
  {dd1c4043-3783-4a9e-9280-72a6a19434ac}, !- Handle
  {8052b27d-b7db-4a81-9c14-c0e944eac6f5}, !- Name
  ;                                       !- HVAC Component

OS:PortList,
  {0dae42dd-abaf-45a1-ae73-665527e358c8}, !- Handle
  {93dbc189-d8dd-4a0f-8001-114f8fd574a5}, !- Name
  ;                                       !- HVAC Component

OS:PortList,
  {06983a4f-fa21-45f7-880a-0a01659a7dcd}, !- Handle
  {a9b68b80-d93e-4f94-80e1-9507e315ee74}, !- Name
  ;                                       !- HVAC Component

OS:Node,
  {2e659459-a86f-4df8-9291-b5e0f410a3ec}, !- Handle
  Node 5,                                 !- Name
  {2503de0d-bcbc-45a4-916d-173c29b8e117}, !- Inlet Port
  ;                                       !- Outlet Port

OS:Connection,
  {2503de0d-bcbc-45a4-916d-173c29b8e117}, !- Handle
  {8bd3667f-919c-4410-bbd9-fb7774829512}, !- Name
  ,                                       !- Source Object
  11,                                     !- Outlet Port
  {2e659459-a86f-4df8-9291-b5e0f410a3ec}, !- Target Object
  2;                                      !- Inlet Port

OS:PortList,
  {fa8127f6-10fb-4751-9213-4d07a97f3395}, !- Handle
  {ccf2d16c-05de-4c32-ba0a-24a59ecfbabe}, !- Name
  ;                                       !- HVAC Component

OS:PortList,
  {32b4c225-a4a9-47c9-b995-84d399744d45}, !- Handle
  {36684bfe-21a7-413e-bb0e-cd8fc30b9e90}, !- Name
  ;                                       !- HVAC Component

OS:PortList,
  {2ac36808-7412-4cdf-bc63-0d816e7ef41f}, !- Handle
  {4a251e9a-efe2-49ba-b8a5-b0bc9b4fa3de}, !- Name
  ;                                       !- HVAC Component

OS:Node,
  {e2d21374-a019-4401-814b-b3eab2d4a2a0}, !- Handle
  Node 6,                                 !- Name
  {9d13f5e8-8830-4e3c-b9f8-e8484358b3c7}, !- Inlet Port
  ;                                       !- Outlet Port

OS:Connection,
  {9d13f5e8-8830-4e3c-b9f8-e8484358b3c7}, !- Handle
  {ad352a48-2706-46d1-b856-b33dcfe969e0}, !- Name
  ,                                       !- Source Object
  11,                                     !- Outlet Port
  {e2d21374-a019-4401-814b-b3eab2d4a2a0}, !- Target Object
  2;                                      !- Inlet Port

OS:PortList,
  {7e171eb8-c2ca-4469-9d7e-2d38a3a829c9}, !- Handle
  {4683dbdb-4706-426d-9adf-197df6440b21}, !- Name
  ;                                       !- HVAC Component

OS:PortList,
  {ca31b61c-cccf-4ee1-b8c6-f681f3eac60f}, !- Handle
  {c901026b-31d3-4b3b-9464-318842426369}, !- Name
  ;                                       !- HVAC Component

OS:PortList,
  {a2ab2fab-be99-4981-adb4-b08b6be2cc75}, !- Handle
  {c2ddee69-e46e-433f-b249-8f1909945c23}, !- Name
  ;                                       !- HVAC Component

OS:Node,
  {d8f0896a-350b-42bf-ba3d-4838b8c759da}, !- Handle
  Node 7,                                 !- Name
  {a877f4a9-483d-4c4e-b241-b6d6ad013fb3}, !- Inlet Port
  ;                                       !- Outlet Port

OS:Connection,
  {a877f4a9-483d-4c4e-b241-b6d6ad013fb3}, !- Handle
  {54fbb5c9-64ae-4163-b6b9-b5320adc72b7}, !- Name
  ,                                       !- Source Object
  11,                                     !- Outlet Port
  {d8f0896a-350b-42bf-ba3d-4838b8c759da}, !- Target Object
  2;                                      !- Inlet Port

OS:PortList,
  {1d551355-af26-4522-9304-554788cf9432}, !- Handle
  {5ca27c5f-7a08-4775-8d89-9db249477247}, !- Name
  ;                                       !- HVAC Component

OS:PortList,
  {22079111-23c1-46bf-917b-227af43722c0}, !- Handle
  {ccadf21f-bb02-454d-ad5c-0f70a6bb9af5}, !- Name
  ;                                       !- HVAC Component

OS:PortList,
  {8dc1c370-c530-41b1-a97a-55757899b8b4}, !- Handle
  {3b61554c-d8ee-47c9-a465-874374f4e0a6}, !- Name
  ;                                       !- HVAC Component

OS:Node,
  {2684a1f1-c875-4dbd-9a72-c52272da3850}, !- Handle
  Node 8,                                 !- Name
  {10437996-8d6b-4dd4-ae8e-2d30a6726953}, !- Inlet Port
  ;                                       !- Outlet Port

OS:Connection,
  {10437996-8d6b-4dd4-ae8e-2d30a6726953}, !- Handle
  {3fa12543-ff09-4d0a-8c1b-f6e1889bc073}, !- Name
  ,                                       !- Source Object
  11,                                     !- Outlet Port
  {2684a1f1-c875-4dbd-9a72-c52272da3850}, !- Target Object
  2;                                      !- Inlet Port

OS:PortList,
  {95ac5917-f40c-4adf-ab4f-4239b12e346c}, !- Handle
  {0fffa677-4308-45d1-a30b-5632871cb444}, !- Name
  ;                                       !- HVAC Component

OS:PortList,
  {f03d343e-6e02-4a6e-9104-42f2b753982c}, !- Handle
  {6dee1772-3463-4109-b4c3-b96e16d3e11e}, !- Name
  ;                                       !- HVAC Component

OS:PortList,
  {21212bdf-0b44-4cba-8194-ba143d283df0}, !- Handle
  {03c9b7b1-24a9-4d1f-8853-f99c62960a8b}, !- Name
  ;                                       !- HVAC Component

OS:Node,
  {f6f23db2-dd47-4ea5-9ed7-6fbf22bcf625}, !- Handle
  Node 9,                                 !- Name
  {df7fc3bc-0632-4991-aa0a-a106aa4ed428}, !- Inlet Port
  ;                                       !- Outlet Port

OS:Connection,
  {df7fc3bc-0632-4991-aa0a-a106aa4ed428}, !- Handle
  {47c8a29f-0319-4bbf-a0c6-a31f2406c9bf}, !- Name
  ,                                       !- Source Object
  11,                                     !- Outlet Port
  {f6f23db2-dd47-4ea5-9ed7-6fbf22bcf625}, !- Target Object
  2;                                      !- Inlet Port

OS:PortList,
  {71bf664c-d105-4c56-86a8-f22d7af66509}, !- Handle
  {230b118c-9718-4750-a687-314c8923a5f7}, !- Name
  ;                                       !- HVAC Component

OS:PortList,
  {6999c6fd-d1f4-4624-b4ef-ebda0dced06d}, !- Handle
  {a2769f3b-f675-465b-8ac8-9c3afe806db0}, !- Name
  ;                                       !- HVAC Component

OS:PortList,
  {0a99de06-ef16-4ad6-82e5-37a434fae5b2}, !- Handle
  {0337dd13-a624-4d8e-bd82-7b9980f0d218}, !- Name
  ;                                       !- HVAC Component

OS:Node,
  {4c97ac00-8102-46f6-93eb-34a42bd996c6}, !- Handle
  Node 10,                                !- Name
  {f10bf941-42f2-4e33-b511-741f7e524d69}, !- Inlet Port
  ;                                       !- Outlet Port

OS:Connection,
  {f10bf941-42f2-4e33-b511-741f7e524d69}, !- Handle
  {fede3f40-f8bc-40c4-8495-bc91245e887e}, !- Name
  ,                                       !- Source Object
  11,                                     !- Outlet Port
  {4c97ac00-8102-46f6-93eb-34a42bd996c6}, !- Target Object
  2;                                      !- Inlet Port

OS:PortList,
  {76e36c63-2a3b-45f3-86e7-9f42763df3a3}, !- Handle
  {fc4b8130-c0e3-4254-bdc6-14f49c4fd078}, !- Name
  ;                                       !- HVAC Component

OS:PortList,
  {b29e62eb-35fa-446c-87c8-b2fee45dfe09}, !- Handle
  {034da6a9-36b6-413b-91f8-68796f57fa97}, !- Name
  ;                                       !- HVAC Component

OS:PortList,
  {1461c457-7c4d-4d5a-aeaf-cefcaae2a588}, !- Handle
  {cdffde0b-9c92-45fa-ad9f-4af740bfb220}, !- Name
  ;                                       !- HVAC Component

OS:Node,
  {693fa6f4-40bd-4474-b072-637b3bdfa353}, !- Handle
  Node 11,                                !- Name
  {b7315a96-bd7c-4c38-8b53-4507527cdc1d}, !- Inlet Port
  ;                                       !- Outlet Port

OS:Connection,
  {b7315a96-bd7c-4c38-8b53-4507527cdc1d}, !- Handle
  {cc5e7d81-cb5e-404d-9c81-e7698199e5c2}, !- Name
  ,                                       !- Source Object
  11,                                     !- Outlet Port
  {693fa6f4-40bd-4474-b072-637b3bdfa353}, !- Target Object
  2;                                      !- Inlet Port

OS:PortList,
  {605fa11e-4aa1-4c06-bbf3-e7be3eb11b8a}, !- Handle
  {27f012b9-35f2-422c-9167-e39cff04089c}, !- Name
  ;                                       !- HVAC Component

OS:PortList,
  {20e5a4fa-c7c4-4eb2-870d-1b40f7e53017}, !- Handle
  {83dccb95-0c96-4ddf-a0a0-4bb43f52f583}, !- Name
  ;                                       !- HVAC Component

OS:PortList,
  {ec9239cb-44c0-4e15-ab1c-6af6483ec97f}, !- Handle
  {9a6aff4c-5624-45d9-967a-c3098889fecb}, !- Name
  ;                                       !- HVAC Component

OS:Node,
  {837e25d0-975e-424c-bec7-6359ac35ece5}, !- Handle
  Node 12,                                !- Name
  {10a2a85c-eeb7-4753-aba4-046a64da9fb2}, !- Inlet Port
  ;                                       !- Outlet Port

OS:Connection,
  {10a2a85c-eeb7-4753-aba4-046a64da9fb2}, !- Handle
  {a4c2c056-4eaa-4fff-ba02-acc480c7279e}, !- Name
  ,                                       !- Source Object
  11,                                     !- Outlet Port
  {837e25d0-975e-424c-bec7-6359ac35ece5}, !- Target Object
  2;                                      !- Inlet Port

OS:PortList,
  {3f1ae7da-9759-4167-9e20-1a4b3e919e77}, !- Handle
  {0df0fd71-632c-4401-b1ca-198fc5917c29}, !- Name
  ;                                       !- HVAC Component

OS:PortList,
  {e49f4dca-cd4a-4fa7-8024-1c3eeee6c026}, !- Handle
  {5a91e77a-85c9-4519-b443-34f00d28c646}, !- Name
  ;                                       !- HVAC Component

OS:PortList,
  {e6368f44-841a-477d-9940-6878a233d447}, !- Handle
  {b0497a57-9e7d-4304-9e1c-2328ef7672e3}, !- Name
  ;                                       !- HVAC Component

OS:Node,
  {70c1c37e-0266-47c3-be50-270be57a6f5a}, !- Handle
  Node 13,                                !- Name
  {bd0e3f01-1e28-4721-b018-442a7b7283fd}, !- Inlet Port
  ;                                       !- Outlet Port

OS:Connection,
  {bd0e3f01-1e28-4721-b018-442a7b7283fd}, !- Handle
  {14117255-6157-4cd5-9840-bf72c26d8ba9}, !- Name
  ,                                       !- Source Object
  11,                                     !- Outlet Port
  {70c1c37e-0266-47c3-be50-270be57a6f5a}, !- Target Object
  2;                                      !- Inlet Port

OS:PortList,
  {73f0834d-6d2e-4ee8-b9d8-da454f0328ce}, !- Handle
  {dbeab591-38a9-4ddc-a81e-79f40ad3c973}, !- Name
  ;                                       !- HVAC Component

OS:PortList,
  {9be91de1-bd72-4bdb-8511-7cada52b6745}, !- Handle
  {99fed875-ce6c-46f3-9ec2-bc187c11f924}, !- Name
  ;                                       !- HVAC Component

OS:PortList,
  {4bcb6cb4-51b5-4499-9231-62477b069fd2}, !- Handle
  {980065e4-193c-44d4-9a23-cce75740c904}, !- Name
  ;                                       !- HVAC Component

OS:Node,
  {f1beda0e-eedd-4764-a4ac-695c3a6cd166}, !- Handle
  Node 14,                                !- Name
  {52d375e3-d2ce-44f4-9285-c72014316c64}, !- Inlet Port
  ;                                       !- Outlet Port

OS:Connection,
  {52d375e3-d2ce-44f4-9285-c72014316c64}, !- Handle
  {3bd918aa-430d-453a-b501-fb6bf9ad6eaa}, !- Name
  ,                                       !- Source Object
  11,                                     !- Outlet Port
  {f1beda0e-eedd-4764-a4ac-695c3a6cd166}, !- Target Object
  2;                                      !- Inlet Port

OS:PortList,
  {cc7e4fbb-74d6-42c5-b7fa-11c8a3667054}, !- Handle
  {625b8a9c-6223-4d15-89be-c67ba47aa331}, !- Name
  ;                                       !- HVAC Component

OS:PortList,
  {993c48af-b94f-44f0-b694-06badf93c58d}, !- Handle
  {f0d2cd2d-d749-4bf6-8b78-d69a142d515e}, !- Name
  ;                                       !- HVAC Component

OS:PortList,
  {54d4619b-0ffb-42a7-8990-ca1113b6d2ec}, !- Handle
  {fff3da90-9f6d-4d02-8222-df62890ad119}, !- Name
  ;                                       !- HVAC Component

OS:Node,
  {4659834d-d6b1-4365-95d8-1f34ac4a0507}, !- Handle
  Node 15,                                !- Name
  {b090cdc4-7e5d-4332-920b-8900141a45ec}, !- Inlet Port
  ;                                       !- Outlet Port

OS:Connection,
  {b090cdc4-7e5d-4332-920b-8900141a45ec}, !- Handle
  {51e4198d-e6ef-45c6-bd4c-eb3c4a010174}, !- Name
  ,                                       !- Source Object
  11,                                     !- Outlet Port
  {4659834d-d6b1-4365-95d8-1f34ac4a0507}, !- Target Object
  2;                                      !- Inlet Port

OS:PortList,
  {53e62732-c24c-4e38-a8b4-5d14ba8542ed}, !- Handle
  {04660d7c-1199-4f0b-93bd-0172b62411eb}, !- Name
  ;                                       !- HVAC Component

OS:PortList,
  {74845d25-756a-4ee5-a2e8-2140a0235a4a}, !- Handle
  {8be5839f-90cc-40df-af61-3bfebf4de385}, !- Name
  ;                                       !- HVAC Component

OS:PortList,
  {337200f6-f950-46d0-bf83-fcafc27d5f99}, !- Handle
  {9814debb-c4db-4465-a82f-57f7120b3af8}, !- Name
  ;                                       !- HVAC Component

OS:Node,
  {16667376-d2b0-4634-85bc-d6d65ea3e433}, !- Handle
  Node 16,                                !- Name
  {26087995-c327-4217-a9a6-cb60fe1d986d}, !- Inlet Port
  ;                                       !- Outlet Port

OS:Connection,
  {26087995-c327-4217-a9a6-cb60fe1d986d}, !- Handle
  {50a29a40-eadd-4b2f-9452-4ae34d36f9f3}, !- Name
  ,                                       !- Source Object
  11,                                     !- Outlet Port
  {16667376-d2b0-4634-85bc-d6d65ea3e433}, !- Target Object
  2;                                      !- Inlet Port

OS:PortList,
  {7d0c48cd-1eca-42cf-b673-7246257e4930}, !- Handle
  {2aceed6d-3402-4aec-ade7-9022240418aa}, !- Name
  ;                                       !- HVAC Component

OS:PortList,
  {8d6a7e71-e8cf-4761-9c5e-1c734372e8b0}, !- Handle
  {a92e973a-d098-490e-b00e-3e8c8fdca739}, !- Name
  ;                                       !- HVAC Component

OS:PortList,
  {6a5e1b4e-2233-4a3f-8b2c-84dd53aa4cf4}, !- Handle
  {c3375814-3c88-4c2e-b5fa-c7595acb55b4}, !- Name
  ;                                       !- HVAC Component

OS:Node,
  {3842870e-cec2-45fc-9ca5-5acaafd37d5e}, !- Handle
  Node 17,                                !- Name
  {10a5db4e-0639-4a4e-846e-c298de7f4ae2}, !- Inlet Port
  ;                                       !- Outlet Port

OS:Connection,
  {10a5db4e-0639-4a4e-846e-c298de7f4ae2}, !- Handle
  {db8bfcc3-079f-471b-93fa-eabb80c9d143}, !- Name
  ,                                       !- Source Object
  11,                                     !- Outlet Port
  {3842870e-cec2-45fc-9ca5-5acaafd37d5e}, !- Target Object
  2;                                      !- Inlet Port

OS:PortList,
  {16b3e058-81be-4ab6-8629-6332a914a6bb}, !- Handle
  {5f5d4c46-2eec-452b-938c-0d2dd6be74e9}, !- Name
  ;                                       !- HVAC Component

OS:PortList,
  {5bfd75f6-0d1b-45d9-859e-7d1a585db16f}, !- Handle
  {71bc953d-1071-47b1-b12a-7638635fb3cf}, !- Name
  ;                                       !- HVAC Component

OS:PortList,
  {e99276a5-0000-47cd-8e2e-4f142bc2cbb9}, !- Handle
  {2cfeb03e-e814-463a-ad34-1cd74c472b7b}, !- Name
  ;                                       !- HVAC Component

OS:Node,
  {8f0d8b63-9347-4356-8bd9-bdb94a34465e}, !- Handle
  Node 18,                                !- Name
  {66cf4120-48e4-490c-8240-432cb6d889e3}, !- Inlet Port
  ;                                       !- Outlet Port

OS:Connection,
  {66cf4120-48e4-490c-8240-432cb6d889e3}, !- Handle
  {6752874b-822a-4ac2-b08f-ced0678864bf}, !- Name
  ,                                       !- Source Object
  11,                                     !- Outlet Port
  {8f0d8b63-9347-4356-8bd9-bdb94a34465e}, !- Target Object
  2;                                      !- Inlet Port

OS:PortList,
  {43a90db7-c3cf-4332-aa23-b80a136cb814}, !- Handle
  {01ace210-ccc9-4315-a13e-9722c8d60d07}, !- Name
  ;                                       !- HVAC Component

OS:PortList,
  {4ce0b6bc-73ad-4c39-851b-c3b8e29e12c1}, !- Handle
  {0ba9b5ad-adf9-46ce-a386-4d22bc756203}, !- Name
  ;                                       !- HVAC Component

OS:PortList,