
OS:Version,
  {1de3f369-e422-4111-ac31-dd80ee739dc7}, !- Handle
  2.8.0;                                  !- Version Identifier

OS:Facility,
  {6e50c419-08b9-4670-84f5-46695eb8eec4}; !- Handle

OS:Site,
  {8e0a087e-77eb-427b-a804-8ac4a0b8ec0f}, !- Handle
  Buffalo Niagara Intl Ap_NY_USA,         !- Name
  42.8197487909843,                       !- Latitude {deg}
  -78.8497235380296,                      !- Longitude {deg}
  -5,                                     !- Time Zone {hr}
  215,                                    !- Elevation {m}
  City;                                   !- Terrain

OS:SimulationControl,
  {79e169a7-58ec-4e23-8f59-d58ad3916775}, !- Handle
  ,                                       !- Do Zone Sizing Calculation
  ,                                       !- Do System Sizing Calculation
  ,                                       !- Do Plant Sizing Calculation
  No,                                     !- Run Simulation for Sizing Periods
  Yes;                                    !- Run Simulation for Weather File Run Periods

OS:Sizing:Parameters,
  {eb20c7a8-a80a-4391-b133-0df4e2bdf676}, !- Handle
  1.25,                                   !- Heating Sizing Factor
  1.15;                                   !- Cooling Sizing Factor

OS:Timestep,
  {fc2e59bc-73c3-406c-9fe1-ef7534d162e7}, !- Handle
  1;                                      !- Number of Timesteps per Hour

OS:ShadowCalculation,
  {2e4ebe57-6d5e-4cd0-b279-a84a668cf40f}, !- Handle
  20,                                     !- Calculation Frequency
  15000;                                  !- Maximum Figures in Shadow Overlap Calculations

OS:HeatBalanceAlgorithm,
  {5a8f2ce6-d938-4e36-828b-dc4a4516183f}, !- Handle
  ConductionTransferFunction,             !- Algorithm
  200;                                    !- Surface Temperature Upper Limit {C}

OS:RunPeriod,
  {416ad15e-d150-4f04-8482-94437746526b}, !- Handle
  Run Period 1,                           !- Name
  1,                                      !- Begin Month
  1,                                      !- Begin Day of Month
  12,                                     !- End Month
  31,                                     !- End Day of Month
  ,                                       !- Use Weather File Holidays and Special Days
  ,                                       !- Use Weather File Daylight Saving Period
  ,                                       !- Apply Weekend Holiday Rule
  ,                                       !- Use Weather File Rain Indicators
  ,                                       !- Use Weather File Snow Indicators
  ;                                       !- Number of Times Runperiod to be Repeated

OS:LifeCycleCost:Parameters,
  {adff7c90-8d16-423a-a969-50e703fe6760}, !- Handle
  ,                                       !- Analysis Type
  ,                                       !- Discounting Convention
  ,                                       !- Inflation Approach
  ,                                       !- Real Discount Rate
  ,                                       !- Nominal Discount Rate
  ,                                       !- Inflation
  ,                                       !- Base Date Month
  ,                                       !- Base Date Year
  ,                                       !- Service Date Month
  ,                                       !- Service Date Year
  ;                                       !- Length of Study Period in Years

OS:YearDescription,
  {1ec3d867-6158-4ce7-afe0-d8752621f8a6}, !- Handle
  2018,                                   !- Calendar Year
  ,                                       !- Day of Week for Start Day
  ;                                       !- Is Leap Year

OS:WeatherFile,
  {40d49bc1-b42c-462f-99f6-e5ce1e225843}, !- Handle
  Buffalo Niagara Intl Ap,                !- City
  NY,                                     !- State Province Region
  USA,                                    !- Country
  TMY3,                                   !- Data Source
  725280,                                 !- WMO Number
  42.93,                                  !- Latitude {deg}
  -78.73,                                 !- Longitude {deg}
  -5,                                     !- Time Zone {hr}
  215,                                    !- Elevation {m}
  file:////Users/tkwasnik/github/urbanopt-example-geojson-reopt-project/weather/USA_NY_Buffalo-Greater.Buffalo.Intl.AP.725280_TMY3.epw, !- Url
  ;                                       !- Checksum

OS:Site:WaterMainsTemperature,
  {b3a0de9b-0e02-4127-997b-c837738d0961}, !- Handle
  Correlation,                            !- Calculation Method
  ,                                       !- Temperature Schedule Name
  8.96666666666667,                       !- Annual Average Outdoor Air Temperature {C}
  26.2;                                   !- Maximum Difference In Monthly Average Outdoor Air Temperatures {deltaC}

OS:SizingPeriod:DesignDay,
  {db49c7ac-059f-4f0d-819a-e9e65bf2977d}, !- Handle
  Buffalo Niagara Intl Ap Ann Clg .4% Condns WB=>MDB, !- Name
  27.8,                                   !- Maximum Dry-Bulb Temperature {C}
  9.3,                                    !- Daily Dry-Bulb Temperature Range {deltaC}
  23.8,                                   !- Humidity Indicating Conditions at Maximum Dry-Bulb
  98769,                                  !- Barometric Pressure {Pa}
  5.7,                                    !- Wind Speed {m/s}
  240,                                    !- Wind Direction {deg}
  0,                                      !- Sky Clearness
  0,                                      !- Rain Indicator
  0,                                      !- Snow Indicator
  21,                                     !- Day of Month
  7,                                      !- Month
  SummerDesignDay,                        !- Day Type
  0,                                      !- Daylight Saving Time Indicator
  Wetbulb,                                !- Humidity Indicating Type
  ,                                       !- Humidity Indicating Day Schedule Name
  DefaultMultipliers,                     !- Dry-Bulb Temperature Range Modifier Type
  ,                                       !- Dry-Bulb Temperature Range Modifier Schedule Name
  ASHRAETau,                              !- Solar Model Indicator
  ,                                       !- Beam Solar Day Schedule Name
  ,                                       !- Diffuse Solar Day Schedule Name
  0.462,                                  !- ASHRAE Taub {dimensionless}
  2.001;                                  !- ASHRAE Taud {dimensionless}

OS:SizingPeriod:DesignDay,
  {dff4ccee-06b4-468b-bb20-e877a4fc85d2}, !- Handle
  Buffalo Niagara Intl Ap Ann Clg .4% Condns DB=>MWB, !- Name
  30.3,                                   !- Maximum Dry-Bulb Temperature {C}
  9.3,                                    !- Daily Dry-Bulb Temperature Range {deltaC}
  21.8,                                   !- Humidity Indicating Conditions at Maximum Dry-Bulb
  98769,                                  !- Barometric Pressure {Pa}
  5.7,                                    !- Wind Speed {m/s}
  240,                                    !- Wind Direction {deg}
  0,                                      !- Sky Clearness
  0,                                      !- Rain Indicator
  0,                                      !- Snow Indicator
  21,                                     !- Day of Month
  7,                                      !- Month
  SummerDesignDay,                        !- Day Type
  0,                                      !- Daylight Saving Time Indicator
  Wetbulb,                                !- Humidity Indicating Type
  ,                                       !- Humidity Indicating Day Schedule Name
  DefaultMultipliers,                     !- Dry-Bulb Temperature Range Modifier Type
  ,                                       !- Dry-Bulb Temperature Range Modifier Schedule Name
  ASHRAETau,                              !- Solar Model Indicator
  ,                                       !- Beam Solar Day Schedule Name
  ,                                       !- Diffuse Solar Day Schedule Name
  0.462,                                  !- ASHRAE Taub {dimensionless}
  2.001;                                  !- ASHRAE Taud {dimensionless}

OS:SizingPeriod:DesignDay,
  {d6de94bb-7f06-435f-9c05-5e269b1d52bf}, !- Handle
  Buffalo Niagara Intl Ap Ann Htg 99.6% Condns DB, !- Name
  -16.3,                                  !- Maximum Dry-Bulb Temperature {C}
  0,                                      !- Daily Dry-Bulb Temperature Range {deltaC}
  -16.3,                                  !- Humidity Indicating Conditions at Maximum Dry-Bulb
  98769,                                  !- Barometric Pressure {Pa}
  5.1,                                    !- Wind Speed {m/s}
  270,                                    !- Wind Direction {deg}
  0,                                      !- Sky Clearness
  0,                                      !- Rain Indicator
  0,                                      !- Snow Indicator
  21,                                     !- Day of Month
  1,                                      !- Month
  WinterDesignDay,                        !- Day Type
  0,                                      !- Daylight Saving Time Indicator
  Wetbulb,                                !- Humidity Indicating Type
  ,                                       !- Humidity Indicating Day Schedule Name
  DefaultMultipliers,                     !- Dry-Bulb Temperature Range Modifier Type
  ,                                       !- Dry-Bulb Temperature Range Modifier Schedule Name
  ASHRAEClearSky;                         !- Solar Model Indicator

OS:ClimateZones,
  {f8942a0b-fcd8-4ff6-9c96-d10e26ad8679}, !- Handle
  ,                                       !- Active Institution
  ,                                       !- Active Year
  ASHRAE,                                 !- Climate Zone Institution Name 1
  ANSI/ASHRAE Standard 169,               !- Climate Zone Document Name 1
  2006,                                   !- Climate Zone Document Year 1
  6A;                                     !- Climate Zone Value 1

OS:Node,
  {180afba4-417a-4997-83c2-0c9cc99b3c55}, !- Handle
  Node 1,                                 !- Name
  {7e8f6743-109a-48ea-836c-b7535353f13c}, !- Inlet Port
  ;                                       !- Outlet Port

OS:Connection,
  {7e8f6743-109a-48ea-836c-b7535353f13c}, !- Handle
  {c31a32be-deb9-487b-87f6-68ae99f9a344}, !- Name
  ,                                       !- Source Object
  11,                                     !- Outlet Port
  {180afba4-417a-4997-83c2-0c9cc99b3c55}, !- Target Object
  2;                                      !- Inlet Port

OS:PortList,
  {41b6f30d-0e3a-4698-8c5b-5a9c3226ca0a}, !- Handle
  {3fb82c52-3421-4b31-8e1e-bd03873ca45e}, !- Name
  ;                                       !- HVAC Component

OS:PortList,
  {c659ecee-2e18-485d-b430-842697a09264}, !- Handle
  {886be8c5-5c46-4674-8728-968cbda379a5}, !- Name
  ;                                       !- HVAC Component

OS:PortList,
  {805a032d-87f9-4dcb-8c30-2899655593e3}, !- Handle
  {b2d1c52a-9c4e-411e-82f4-4607648fd97d}, !- Name
  ;                                       !- HVAC Component

OS:Node,
  {232b90e7-578b-479a-bc4b-0fa89631208b}, !- Handle
  Node 2,                                 !- Name
  {6f1d38d1-7493-4934-a834-5fdc0b7319dc}, !- Inlet Port
  ;                                       !- Outlet Port

OS:Connection,
  {6f1d38d1-7493-4934-a834-5fdc0b7319dc}, !- Handle
  {12e2cff9-7863-46cc-b1da-a63e13bc33ce}, !- Name
  ,                                       !- Source Object
  11,                                     !- Outlet Port
  {232b90e7-578b-479a-bc4b-0fa89631208b}, !- Target Object
  2;                                      !- Inlet Port

OS:PortList,
  {b0d206da-3964-481f-8176-b5ea53109872}, !- Handle
  {3af5fb21-c08a-4760-a57b-8b2fcbe70445}, !- Name
  ;                                       !- HVAC Component

OS:PortList,
  {1de84bf3-b069-4ddd-8be2-2a103bbcd601}, !- Handle
  {604396ad-9d2d-4f34-89f7-acaa1762ddf2}, !- Name
  ;                                       !- HVAC Component

OS:PortList,
  {7605ad6d-ec8e-404d-b981-6e87827def60}, !- Handle
  {55c72253-ff4b-4f35-87b8-84be2de10478}, !- Name
  ;                                       !- HVAC Component

OS:Node,
  {b4c92412-d647-49dd-af2e-425201ed90cb}, !- Handle
  Node 3,                                 !- Name
  {d5e5b0cc-12f8-4c0c-a242-a1dbe1d826bd}, !- Inlet Port
  ;                                       !- Outlet Port

OS:Connection,
  {d5e5b0cc-12f8-4c0c-a242-a1dbe1d826bd}, !- Handle
  {7de8aa21-0086-4555-8014-6c7af329d450}, !- Name
  ,                                       !- Source Object
  11,                                     !- Outlet Port
  {b4c92412-d647-49dd-af2e-425201ed90cb}, !- Target Object
  2;                                      !- Inlet Port

OS:PortList,
  {3be4f99a-0096-4d1e-8cd3-c1b6525bd53e}, !- Handle
  {fbe68944-6a82-4827-a008-4d813fdd315c}, !- Name
  ;                                       !- HVAC Component

OS:PortList,
  {040dd0d2-2be1-452b-acc3-9258bc20fd29}, !- Handle
  {93f6db83-a0bb-41da-bd0d-925797f1d910}, !- Name
  ;                                       !- HVAC Component

OS:PortList,
  {42f77638-6980-4c03-8156-f5274949aaee}, !- Handle
  {2a9605b4-3bab-4416-b981-841923e68486}, !- Name
  ;                                       !- HVAC Component

OS:Node,
  {a77e0292-966c-44b6-a3e3-028e86614aea}, !- Handle
  Node 4,                                 !- Name
  {e4acca17-157c-48e1-8151-02aeaecee184}, !- Inlet Port
  ;                                       !- Outlet Port

OS:Connection,
  {e4acca17-157c-48e1-8151-02aeaecee184}, !- Handle
  {f6aabd7e-101a-496a-a5c2-13e84f6cd14e}, !- Name
  ,                                       !- Source Object
  11,                                     !- Outlet Port
  {a77e0292-966c-44b6-a3e3-028e86614aea}, !- Target Object
  2;                                      !- Inlet Port

OS:PortList,
  {6811458e-2f9a-4226-91fb-7dd19ddc1ab0}, !- Handle
  {46cbd34d-152a-46c5-8197-1f22b0c37ae5}, !- Name
  ;                                       !- HVAC Component

OS:PortList,
  {e7c695ea-c1fd-47a3-8818-ec42b4585ec7}, !- Handle
  {252672a8-b883-4d63-9af0-7e8bbd3748cf}, !- Name
  ;                                       !- HVAC Component

OS:PortList,
  {f1e29857-1a15-463c-a5ea-69014b392ab1}, !- Handle
  {1d0a9f71-6c86-4dad-b610-65af197df0d2}, !- Name
  ;                                       !- HVAC Component

OS:Node,
  {bce123ca-3a94-4b20-9d01-bec691c05445}, !- Handle
  Node 5,                                 !- Name
  {c113449f-d2a7-4e89-9f7f-dab17a7a8df6}, !- Inlet Port
  ;                                       !- Outlet Port

OS:Connection,
  {c113449f-d2a7-4e89-9f7f-dab17a7a8df6}, !- Handle
  {7b84f1ba-39d0-4f6d-82fe-2be1539181ae}, !- Name
  ,                                       !- Source Object
  11,                                     !- Outlet Port
  {bce123ca-3a94-4b20-9d01-bec691c05445}, !- Target Object
  2;                                      !- Inlet Port

OS:PortList,
  {9c5dec44-cbf9-4877-82c0-81278c20c85d}, !- Handle
  {1fefa688-9135-475e-917d-392a69813ca2}, !- Name
  ;                                       !- HVAC Component

OS:PortList,
  {8956f3ad-d7b2-4d70-886b-88c83ba6eef4}, !- Handle
  {d36de702-ae97-48b9-a776-06371c953afa}, !- Name
  ;                                       !- HVAC Component

OS:PortList,
  {10aa6b27-fad3-49c0-9ceb-bb90c554b1b3}, !- Handle
  {3fa67179-c90b-4a67-a9c7-7b0f0c18da3d}, !- Name
  ;                                       !- HVAC Component

OS:Node,
  {78b069bf-9e70-43c7-90ec-cae9db3801e7}, !- Handle
  Node 6,                                 !- Name
  {85c3ccb2-e795-47c9-bb88-a867256b92bc}, !- Inlet Port
  ;                                       !- Outlet Port

OS:Connection,
  {85c3ccb2-e795-47c9-bb88-a867256b92bc}, !- Handle
  {a807604e-c2bb-4842-9c14-cccebc080fa8}, !- Name
  ,                                       !- Source Object
  11,                                     !- Outlet Port
  {78b069bf-9e70-43c7-90ec-cae9db3801e7}, !- Target Object
  2;                                      !- Inlet Port

OS:PortList,
  {a132bb0d-86db-45a3-a748-e647edeaa696}, !- Handle
  {9a13c6f4-4273-4492-bbf1-ea2986d4dce3}, !- Name
  ;                                       !- HVAC Component

OS:PortList,
  {bc230c05-8dbc-4b58-acd7-faa6bbb31100}, !- Handle
  {6ce6c771-23ad-49dd-8ff0-46a7c718db8a}, !- Name
  ;                                       !- HVAC Component

OS:PortList,
  {93b00318-b754-479c-88c6-053ce3b31152}, !- Handle
  {1811929d-40f5-4de6-bbe4-3d3c0b03b632}, !- Name
  ;                                       !- HVAC Component

OS:Node,
  {42ca110a-d8bf-4c47-b4ab-fd6913b5e89e}, !- Handle
  Node 7,                                 !- Name
  {2d8f1465-8391-49fa-a61e-12aa2bee9820}, !- Inlet Port
  ;                                       !- Outlet Port

OS:Connection,
  {2d8f1465-8391-49fa-a61e-12aa2bee9820}, !- Handle
  {32cc94f4-a8e0-429c-b85f-f30cc729c635}, !- Name
  ,                                       !- Source Object
  11,                                     !- Outlet Port
  {42ca110a-d8bf-4c47-b4ab-fd6913b5e89e}, !- Target Object
  2;                                      !- Inlet Port

OS:PortList,
  {ad0563da-5447-4ab0-bd0a-68ebec926326}, !- Handle
  {a334f0de-c45a-4b4f-b562-bc7654671208}, !- Name
  ;                                       !- HVAC Component

OS:PortList,
  {4fb36da4-b1ef-4b18-891e-4bedc58a12a0}, !- Handle
  {74e200c3-9a3f-4386-b0f8-a015d9a06056}, !- Name
  ;                                       !- HVAC Component

OS:PortList,
  {590b6a8d-9159-4990-be13-506c7843efbb}, !- Handle
  {121415bc-07a6-4b85-9c27-c5f088550803}, !- Name
  ;                                       !- HVAC Component

OS:Node,
  {62d62c7e-eba9-4dbe-a7b9-a8f3cae5a46a}, !- Handle
  Node 8,                                 !- Name
  {23c7ba23-a0bc-4d80-94ad-08a92a56ad32}, !- Inlet Port
  ;                                       !- Outlet Port

OS:Connection,
  {23c7ba23-a0bc-4d80-94ad-08a92a56ad32}, !- Handle
  {3bb13141-a715-4b12-bb9c-0793ae4452fb}, !- Name
  ,                                       !- Source Object
  11,                                     !- Outlet Port
  {62d62c7e-eba9-4dbe-a7b9-a8f3cae5a46a}, !- Target Object
  2;                                      !- Inlet Port

OS:PortList,
  {c8e33f63-c71b-4478-ba72-50830f055e1e}, !- Handle
  {7bce43ae-dba0-4cd9-ac83-fde92dcbc498}, !- Name
  ;                                       !- HVAC Component

OS:PortList,
  {09f2d5e8-5730-4c4b-9a8d-f72ea8a71579}, !- Handle
  {2305f03d-e9b3-4d08-9434-6c08da611716}, !- Name
  ;                                       !- HVAC Component

OS:PortList,
  {32f97eff-a88b-43da-ae43-9dd7b200645e}, !- Handle
  {cd03a47b-ad83-4318-846a-b1df8aea2538}, !- Name
  ;                                       !- HVAC Component

OS:Node,
  {67260bc3-2755-43e2-9907-949e17b5c3d1}, !- Handle
  Node 9,                                 !- Name
  {13e41984-190b-4cad-9ad8-788954fea8d3}, !- Inlet Port
  ;                                       !- Outlet Port

OS:Connection,
  {13e41984-190b-4cad-9ad8-788954fea8d3}, !- Handle
  {665bc0de-94b1-480c-9ee0-4b7ac8e3e47f}, !- Name
  ,                                       !- Source Object
  11,                                     !- Outlet Port
  {67260bc3-2755-43e2-9907-949e17b5c3d1}, !- Target Object
  2;                                      !- Inlet Port

OS:PortList,
  {badb0821-8913-4219-bf10-4df8665666d1}, !- Handle
  {a8fb099e-31dd-42e0-8386-5c9bc100c842}, !- Name
  ;                                       !- HVAC Component

OS:PortList,
  {390a241a-aeaa-4014-b45f-dba14e8994c8}, !- Handle
  {b99c5eb8-a88c-4094-ba05-ade264dd98a5}, !- Name
  ;                                       !- HVAC Component

OS:PortList,
  {b7b72e78-9e15-4c9d-b734-1f11cdc4d067}, !- Handle
  {d3a2c39a-c91f-481e-a02d-e2f136f3c951}, !- Name
  ;                                       !- HVAC Component

OS:Node,
  {cad761ff-467f-4956-9d01-c9e82e1181e7}, !- Handle
  Node 10,                                !- Name
  {f9968498-0365-46d0-8ee1-3081b33ba4f9}, !- Inlet Port
  ;                                       !- Outlet Port

OS:Connection,
  {f9968498-0365-46d0-8ee1-3081b33ba4f9}, !- Handle
  {f51c6dd6-1ab1-469b-ad98-fa1d1d921671}, !- Name
  ,                                       !- Source Object
  11,                                     !- Outlet Port
  {cad761ff-467f-4956-9d01-c9e82e1181e7}, !- Target Object
  2;                                      !- Inlet Port

OS:PortList,
  {60055b4a-4036-468b-b6ad-6c005005706f}, !- Handle
  {22f24f9b-867e-4885-9488-a4542cc692ad}, !- Name
  ;                                       !- HVAC Component

OS:PortList,
  {d016ad38-8833-46f6-8700-5b63407e58e2}, !- Handle
  {5a50bc8e-34d5-468d-827c-3680d0c63caf}, !- Name
  ;                                       !- HVAC Component

OS:PortList,
  {d17e4772-65f2-45f2-962a-c6bd18f81c13}, !- Handle
  {7d6799e4-9345-4c25-90f2-e6524ab19457}, !- Name
  ;                                       !- HVAC Component

OS:Node,
  {1513da9d-effa-4473-8391-7ae88a99a345}, !- Handle
  Node 11,                                !- Name
  {639418bc-1dc6-490c-922c-fb20d504b70b}, !- Inlet Port
  ;                                       !- Outlet Port

OS:Connection,
  {639418bc-1dc6-490c-922c-fb20d504b70b}, !- Handle
  {53e26b17-5a79-4dfd-9951-26792aab6795}, !- Name
  ,                                       !- Source Object
  11,                                     !- Outlet Port
  {1513da9d-effa-4473-8391-7ae88a99a345}, !- Target Object
  2;                                      !- Inlet Port

OS:PortList,
  {30553a42-f1e0-4498-aa7a-91989345694d}, !- Handle
  {02df687d-2ca3-41dc-a77a-d4bda19deaaf}, !- Name
  ;                                       !- HVAC Component

OS:PortList,
  {de6a4740-6022-4c0c-aa2d-5c5115246ee9}, !- Handle
  {29f71e8e-5569-4d25-b61a-f6841275eb56}, !- Name
  ;                                       !- HVAC Component

OS:PortList,
  {1a13f313-5b75-4312-bc5a-725d66e8a560}, !- Handle
  {b4b4cafe-4c2c-4d88-a0c6-06b8d6df115c}, !- Name
  ;                                       !- HVAC Component

OS:Node,
  {48c32466-ede8-483e-9993-0930fcadc51a}, !- Handle
  Node 12,                                !- Name
  {85a4699b-ba81-438b-ba46-74f26687ba83}, !- Inlet Port
  ;                                       !- Outlet Port

OS:Connection,
  {85a4699b-ba81-438b-ba46-74f26687ba83}, !- Handle
  {69e13a37-e0cb-459f-a27d-3d46e34fc1ba}, !- Name
  ,                                       !- Source Object
  11,                                     !- Outlet Port
  {48c32466-ede8-483e-9993-0930fcadc51a}, !- Target Object
  2;                                      !- Inlet Port

OS:PortList,
  {3fb87af9-a2e4-4d50-813e-e67c4592aafc}, !- Handle
  {9602089a-9ee6-474c-b31c-1e5235cc9cfb}, !- Name
  ;                                       !- HVAC Component

OS:PortList,
  {a47cf3b4-1b04-4ccd-be39-aded14e90228}, !- Handle
  {7f290103-5af3-4dda-80ff-5db32f27bcfb}, !- Name
  ;                                       !- HVAC Component

OS:PortList,
  {f9523953-0c66-4ef7-8b88-ed9736f6a40c}, !- Handle
  {8e282f0f-7a0b-451c-8945-26e67d84e051}, !- Name
  ;                                       !- HVAC Component

OS:Node,
  {277870bf-583d-4bcc-a5ee-546076d47e46}, !- Handle
  Node 13,                                !- Name
  {41651755-f6c6-48d8-8e4a-966346bd3192}, !- Inlet Port
  ;                                       !- Outlet Port

OS:Connection,
  {41651755-f6c6-48d8-8e4a-966346bd3192}, !- Handle
  {76a449e0-5b3d-4979-97e0-db0c0a3d62d4}, !- Name
  ,                                       !- Source Object
  11,                                     !- Outlet Port
  {277870bf-583d-4bcc-a5ee-546076d47e46}, !- Target Object
  2;                                      !- Inlet Port

OS:PortList,
  {ef1ebdf4-082d-4285-b194-ce60c3edac5d}, !- Handle
  {669879fe-6ea0-4566-ad52-cdaa9b104af7}, !- Name
  ;                                       !- HVAC Component

OS:PortList,
  {6ef2f17e-1638-48c9-91b8-b9c96c348fff}, !- Handle
  {acf8af42-74ea-4060-a712-52eda3f01633}, !- Name
  ,                                       !- HVAC Component
  {e8f33c94-1c22-4fdd-a818-0aaddbc2842a}; !- Port 1

OS:PortList,
  {e8cc5216-dd92-4614-8e95-bc337f9e71ef}, !- Handle
  {3c7b5a53-e0e0-4423-aea0-3f2252bf52c1}, !- Name
  ;                                       !- HVAC Component

OS:Node,
  {20e16acb-0a33-4e0d-b447-ad3b5d2f73d0}, !- Handle
  Node 14,                                !- Name
  {39691966-96fa-41d4-9e40-e309038f0a3d}, !- Inlet Port
  ;                                       !- Outlet Port

OS:Connection,
  {39691966-96fa-41d4-9e40-e309038f0a3d}, !- Handle
  {fe3d7cb8-d648-4fb0-b82b-5488e5339380}, !- Name
  ,                                       !- Source Object
  11,                                     !- Outlet Port
  {20e16acb-0a33-4e0d-b447-ad3b5d2f73d0}, !- Target Object
  2;                                      !- Inlet Port

OS:PortList,
  {dee0412a-853b-4c42-ada4-5318d1a05663}, !- Handle
  {e624f10d-19b1-4dc5-805b-82e58f63fa71}, !- Name
  ;                                       !- HVAC Component

OS:PortList,
  {d62ec3bb-5ad6-455e-b383-e7ef0cad106e}, !- Handle
  {f349c7be-9cfc-45ac-9e21-c0fce3da9f23}, !- Name
  ,                                       !- HVAC Component
  {a8c89ada-4821-463f-a605-723a54d5228c}; !- Port 1

OS:PortList,
  {02ade9ee-3ad8-492d-ba53-1bc7effeb773}, !- Handle
  {9f1c5d0b-c2a6-4d95-aa32-25024d30c1b1}, !- Name
  ;                                       !- HVAC Component

OS:Node,
  {d26a9021-93ec-455e-a1f7-27f37b54b8e2}, !- Handle
  Node 15,                                !- Name
  {2bce4282-6586-47fc-9ee6-cf64a2852b33}, !- Inlet Port
  ;                                       !- Outlet Port

OS:Connection,
  {2bce4282-6586-47fc-9ee6-cf64a2852b33}, !- Handle
  {5a255b58-66f2-4af4-bc7a-68a2c39330a4}, !- Name
  ,                                       !- Source Object
  11,                                     !- Outlet Port
  {d26a9021-93ec-455e-a1f7-27f37b54b8e2}, !- Target Object
  2;                                      !- Inlet Port

OS:PortList,
  {e87ad41d-4bf7-41d1-96a6-d1845f3ffff2}, !- Handle
  {5ce94339-243e-42f5-bd7a-fa498b89bc72}, !- Name
  ;                                       !- HVAC Component

OS:PortList,
  {0b0cc59e-40ea-4e63-942e-d4676e4c47bd}, !- Handle
  {2c6ae4b2-e7df-4b7f-8c12-b6eec783c330}, !- Name
  ,                                       !- HVAC Component
  {3feb3607-1738-44fd-a969-0dac89198bb0}; !- Port 1

OS:PortList,
  {8c82341f-3cc2-4554-8b01-b3b4e0aaabb5}, !- Handle
  {586e3ecb-46c6-4418-a7dc-d52f91c10835}, !- Name
  ;                                       !- HVAC Component

OS:Node,
  {e23ce125-d620-4585-a9a4-a2b418ec14ca}, !- Handle
  Node 16,                                !- Name
  {068906ca-cef2-4b8c-9cf7-a5c2a3b8c1c7}, !- Inlet Port
  ;                                       !- Outlet Port

OS:Connection,
  {068906ca-cef2-4b8c-9cf7-a5c2a3b8c1c7}, !- Handle
  {45698a2d-8a50-4c35-8e8b-33dd57764182}, !- Name
  ,                                       !- Source Object
  11,                                     !- Outlet Port
  {e23ce125-d620-4585-a9a4-a2b418ec14ca}, !- Target Object
  2;                                      !- Inlet Port

OS:PortList,
  {cad8237b-a667-43d1-b31d-e3c644da8c80}, !- Handle
  {95a7d8d3-6870-48e0-829a-c377208d47d9}, !- Name
  ;                                       !- HVAC Component

OS:PortList,
  {05def651-48e3-4e52-b06f-8fa2cf2a3c80}, !- Handle
  {669a3346-fafb-4e8f-a778-72ba113cb7fb}, !- Name
  ;                                       !- HVAC Component

OS:PortList,
  {41a6311b-636b-4a7c-83cc-7a91ffd20518}, !- Handle
  {50f8a51c-3c24-47b8-80de-7d4ab54bee4a}, !- Name
  ;                                       !- HVAC Component

OS:Node,
  {9b980a2a-3481-4183-99b7-b3353426f572}, !- Handle
  Node 17,                                !- Name
  {e3654d4a-952a-4206-9159-87eea70f1c06}, !- Inlet Port
  ;                                       !- Outlet Port

OS:Connection,
  {e3654d4a-952a-4206-9159-87eea70f1c06}, !- Handle
  {e4231305-7728-4ea9-b437-b507e1a76c3b}, !- Name
  ,                                       !- Source Object
  11,                                     !- Outlet Port
  {9b980a2a-3481-4183-99b7-b3353426f572}, !- Target Object
  2;                                      !- Inlet Port

OS:PortList,
  {4d6d3715-9822-4190-ac51-b11986efc914}, !- Handle
  {a7c4d29c-fb4b-471c-a8a8-f971250da1b8}, !- Name
  ;                                       !- HVAC Component

OS:PortList,
  {9faeb2b3-4c27-4f58-a759-5d3136841465}, !- Handle
  {33d6c643-5fed-49db-9ea9-58b1878f44a1}, !- Name
  ;                                       !- HVAC Component

OS:PortList,
  {73083b07-eaf5-47b4-b7d7-52feea6cfcaa}, !- Handle
  {6f23d106-75ab-4cef-9e5a-318b361bdda0}, !- Name
  ;                                       !- HVAC Component

OS:Node,
  {7f887c76-42d6-4bb3-895c-8783f552d76d}, !- Handle
  Node 18,                                !- Name
  {254a8f29-b13f-4cd5-97db-f7b9647b48a6}, !- Inlet Port
  ;                                       !- Outlet Port

OS:Connection,
  {254a8f29-b13f-4cd5-97db-f7b9647b48a6}, !- Handle
  {6d9a9931-12d8-45b6-90a4-6c7db0a61563}, !- Name
  ,                                       !- Source Object
  11,                                     !- Outlet Port
  {7f887c76-42d6-4bb3-895c-8783f552d76d}, !- Target Object
  2;                                      !- Inlet Port

OS:PortList,
  {6cfed72d-9767-4887-8fc6-c226c0d5a1ce}, !- Handle
  {13c05254-8400-4f33-abb8-7d3bedcaecb4}, !- Name
  ;                                       !- HVAC Component

OS:PortList,
  {6a8f7b33-80db-449b-b623-4b161bbb23a6}, !- Handle