
OS:Version,
  {e742e310-c66c-4fff-bae9-fe4c5262ace1}, !- Handle
  2.8.0;                                  !- Version Identifier

OS:Facility,
  {6d79cc1c-b09c-43fa-80b8-097ae0d0feec}; !- Handle

OS:Site,
  {11fdd221-4af3-44a3-b1ec-7427c5eb91ad}, !- Handle
  Buffalo Niagara Intl Ap_NY_USA,         !- Name
  42.8160067861328,                       !- Latitude {deg}
  -78.8513213710169,                      !- Longitude {deg}
  -5,                                     !- Time Zone {hr}
  215,                                    !- Elevation {m}
  City;                                   !- Terrain

OS:SimulationControl,
  {c4fdf137-2e8d-477d-9ed3-b7fc47133493}, !- Handle
  ,                                       !- Do Zone Sizing Calculation
  ,                                       !- Do System Sizing Calculation
  ,                                       !- Do Plant Sizing Calculation
  Yes,                                    !- Run Simulation for Sizing Periods
  No;                                     !- Run Simulation for Weather File Run Periods

OS:Sizing:Parameters,
  {7742d8a6-ec6e-42dc-a091-b6ad70db8cd9}, !- Handle
  1.25,                                   !- Heating Sizing Factor
  1.15;                                   !- Cooling Sizing Factor

OS:Timestep,
  {a3835f7e-b501-42f1-a200-3efed5c2cf82}, !- Handle
  1;                                      !- Number of Timesteps per Hour

OS:ShadowCalculation,
  {57c267fb-314f-46e4-bd28-9d7889476c66}, !- Handle
  20,                                     !- Calculation Frequency
  15000;                                  !- Maximum Figures in Shadow Overlap Calculations

OS:HeatBalanceAlgorithm,
  {3c454a36-bf62-44cd-b87e-91cce8a5d047}, !- Handle
  ConductionTransferFunction,             !- Algorithm
  200;                                    !- Surface Temperature Upper Limit {C}

OS:RunPeriod,
  {5dda1cb2-fd37-4fea-8d77-cc0db514098c}, !- Handle
  Run Period 1,                           !- Name
  1,                                      !- Begin Month
  1,                                      !- Begin Day of Month
  12,                                     !- End Month
  31,                                     !- End Day of Month
  ,                                       !- Use Weather File Holidays and Special Days
  ,                                       !- Use Weather File Daylight Saving Period
  ,                                       !- Apply Weekend Holiday Rule
  ,                                       !- Use Weather File Rain Indicators
  ,                                       !- Use Weather File Snow Indicators
  ;                                       !- Number of Times Runperiod to be Repeated

OS:LifeCycleCost:Parameters,
  {87cf1ec1-864e-4376-959b-fe2e5cd9907c}, !- Handle
  ,                                       !- Analysis Type
  ,                                       !- Discounting Convention
  ,                                       !- Inflation Approach
  ,                                       !- Real Discount Rate
  ,                                       !- Nominal Discount Rate
  ,                                       !- Inflation
  ,                                       !- Base Date Month
  ,                                       !- Base Date Year
  ,                                       !- Service Date Month
  ,                                       !- Service Date Year
  ;                                       !- Length of Study Period in Years

OS:YearDescription,
  {e52952a2-407b-4aab-93c5-8ff84a0e3a3b}, !- Handle
  2018,                                   !- Calendar Year
  ,                                       !- Day of Week for Start Day
  ;                                       !- Is Leap Year

OS:WeatherFile,
  {2c6d12bd-9748-464d-ae1b-44c07cca87b2}, !- Handle
  Buffalo Niagara Intl Ap,                !- City
  NY,                                     !- State Province Region
  USA,                                    !- Country
  TMY3,                                   !- Data Source
  725280,                                 !- WMO Number
  42.93,                                  !- Latitude {deg}
  -78.73,                                 !- Longitude {deg}
  -5,                                     !- Time Zone {hr}
  215,                                    !- Elevation {m}
  file:////Users/tkwasnik/github/urbanopt-example-geojson-reopt-project/weather/USA_NY_Buffalo-Greater.Buffalo.Intl.AP.725280_TMY3.epw, !- Url
  ;                                       !- Checksum

OS:Site:WaterMainsTemperature,
  {8613388b-d3c4-4738-b839-bac43ef7cbd4}, !- Handle
  Correlation,                            !- Calculation Method
  ,                                       !- Temperature Schedule Name
  8.96666666666667,                       !- Annual Average Outdoor Air Temperature {C}
  26.2;                                   !- Maximum Difference In Monthly Average Outdoor Air Temperatures {deltaC}

OS:SizingPeriod:DesignDay,
  {a60da1cf-4b8e-4075-80eb-2b7f730407c4}, !- Handle
  Buffalo Niagara Intl Ap Ann Clg .4% Condns WB=>MDB, !- Name
  27.8,                                   !- Maximum Dry-Bulb Temperature {C}
  9.3,                                    !- Daily Dry-Bulb Temperature Range {deltaC}
  23.8,                                   !- Humidity Indicating Conditions at Maximum Dry-Bulb
  98769,                                  !- Barometric Pressure {Pa}
  5.7,                                    !- Wind Speed {m/s}
  240,                                    !- Wind Direction {deg}
  0,                                      !- Sky Clearness
  0,                                      !- Rain Indicator
  0,                                      !- Snow Indicator
  21,                                     !- Day of Month
  7,                                      !- Month
  SummerDesignDay,                        !- Day Type
  0,                                      !- Daylight Saving Time Indicator
  Wetbulb,                                !- Humidity Indicating Type
  ,                                       !- Humidity Indicating Day Schedule Name
  DefaultMultipliers,                     !- Dry-Bulb Temperature Range Modifier Type
  ,                                       !- Dry-Bulb Temperature Range Modifier Schedule Name
  ASHRAETau,                              !- Solar Model Indicator
  ,                                       !- Beam Solar Day Schedule Name
  ,                                       !- Diffuse Solar Day Schedule Name
  0.462,                                  !- ASHRAE Taub {dimensionless}
  2.001;                                  !- ASHRAE Taud {dimensionless}

OS:SizingPeriod:DesignDay,
  {b0de4de4-cf2d-44a9-8928-87fcf7b90581}, !- Handle
  Buffalo Niagara Intl Ap Ann Clg .4% Condns DB=>MWB, !- Name
  30.3,                                   !- Maximum Dry-Bulb Temperature {C}
  9.3,                                    !- Daily Dry-Bulb Temperature Range {deltaC}
  21.8,                                   !- Humidity Indicating Conditions at Maximum Dry-Bulb
  98769,                                  !- Barometric Pressure {Pa}
  5.7,                                    !- Wind Speed {m/s}
  240,                                    !- Wind Direction {deg}
  0,                                      !- Sky Clearness
  0,                                      !- Rain Indicator
  0,                                      !- Snow Indicator
  21,                                     !- Day of Month
  7,                                      !- Month
  SummerDesignDay,                        !- Day Type
  0,                                      !- Daylight Saving Time Indicator
  Wetbulb,                                !- Humidity Indicating Type
  ,                                       !- Humidity Indicating Day Schedule Name
  DefaultMultipliers,                     !- Dry-Bulb Temperature Range Modifier Type
  ,                                       !- Dry-Bulb Temperature Range Modifier Schedule Name
  ASHRAETau,                              !- Solar Model Indicator
  ,                                       !- Beam Solar Day Schedule Name
  ,                                       !- Diffuse Solar Day Schedule Name
  0.462,                                  !- ASHRAE Taub {dimensionless}
  2.001;                                  !- ASHRAE Taud {dimensionless}

OS:SizingPeriod:DesignDay,
  {d609973b-ee32-423d-8c66-f35af5f21e25}, !- Handle
  Buffalo Niagara Intl Ap Ann Htg 99.6% Condns DB, !- Name
  -16.3,                                  !- Maximum Dry-Bulb Temperature {C}
  0,                                      !- Daily Dry-Bulb Temperature Range {deltaC}
  -16.3,                                  !- Humidity Indicating Conditions at Maximum Dry-Bulb
  98769,                                  !- Barometric Pressure {Pa}
  5.1,                                    !- Wind Speed {m/s}
  270,                                    !- Wind Direction {deg}
  0,                                      !- Sky Clearness
  0,                                      !- Rain Indicator
  0,                                      !- Snow Indicator
  21,                                     !- Day of Month
  1,                                      !- Month
  WinterDesignDay,                        !- Day Type
  0,                                      !- Daylight Saving Time Indicator
  Wetbulb,                                !- Humidity Indicating Type
  ,                                       !- Humidity Indicating Day Schedule Name
  DefaultMultipliers,                     !- Dry-Bulb Temperature Range Modifier Type
  ,                                       !- Dry-Bulb Temperature Range Modifier Schedule Name
  ASHRAEClearSky;                         !- Solar Model Indicator

OS:ClimateZones,
  {2b1e80b4-af7d-4d26-84e5-08a31393289a}, !- Handle
  ,                                       !- Active Institution
  ,                                       !- Active Year
  ASHRAE,                                 !- Climate Zone Institution Name 1
  ANSI/ASHRAE Standard 169,               !- Climate Zone Document Name 1
  2006,                                   !- Climate Zone Document Year 1
  6A;                                     !- Climate Zone Value 1

OS:Node,
  {4e95b814-f3a5-4bea-a37b-71fecb2c4792}, !- Handle
  Node 1,                                 !- Name
  {5724e7e1-320f-47e8-9abf-bd693dd76ae5}, !- Inlet Port
  ;                                       !- Outlet Port

OS:Connection,
  {5724e7e1-320f-47e8-9abf-bd693dd76ae5}, !- Handle
  {b5168d19-1316-4cb4-851b-549154d125c1}, !- Name
  ,                                       !- Source Object
  11,                                     !- Outlet Port
  {4e95b814-f3a5-4bea-a37b-71fecb2c4792}, !- Target Object
  2;                                      !- Inlet Port

OS:PortList,
  {f14cfa32-b8e9-46aa-86f5-18edf33f58ca}, !- Handle
  {e7ff830a-93b0-4274-8e75-ad2a7e25d415}, !- Name
  ;                                       !- HVAC Component

OS:PortList,
  {21273e4d-58b2-4c10-8d9c-1dd021179a56}, !- Handle
  {40d8081c-77e4-4d41-815c-255563306814}, !- Name
  ,                                       !- HVAC Component
  {2f880fb7-c7eb-4767-bd36-d8d22cc4dbde}; !- Port 1

OS:PortList,
  {41ae0231-739e-4dd5-907b-ba7cc34585a4}, !- Handle
  {ca96dcda-6533-4519-9249-9f03d41472d8}, !- Name
  ;                                       !- HVAC Component

OS:Node,
  {ac0f4ff9-d5ce-40e2-b476-2c929f50abd6}, !- Handle
  Node 2,                                 !- Name
  {31b660e5-3a89-4ec1-a907-51018cf3acbc}, !- Inlet Port
  ;                                       !- Outlet Port

OS:Connection,
  {31b660e5-3a89-4ec1-a907-51018cf3acbc}, !- Handle
  {d5754198-ad10-4ddd-9cb8-ef37c8119c82}, !- Name
  ,                                       !- Source Object
  11,                                     !- Outlet Port
  {ac0f4ff9-d5ce-40e2-b476-2c929f50abd6}, !- Target Object
  2;                                      !- Inlet Port

OS:PortList,
  {c48681c6-188e-4979-94bf-a06ddddc7ba2}, !- Handle
  {d948d5f0-a838-4440-ae3d-ab698d03cf62}, !- Name
  ;                                       !- HVAC Component

OS:PortList,
  {3be1d85c-1c76-4dca-b1af-79a445d869f0}, !- Handle
  {72cb2c62-b068-438d-aeb0-9093d7628d87}, !- Name
  ,                                       !- HVAC Component
  {8fe57d5f-bbfa-4eac-b1fd-b80abb58b250}; !- Port 1

OS:PortList,
  {565a5ddc-07b2-49ed-b681-c38e16bdbe8a}, !- Handle
  {b03a59b8-922e-4e92-b15b-e82969244128}, !- Name
  ;                                       !- HVAC Component

OS:Node,
  {95c861d8-bac5-47b6-b39d-da706f54ef47}, !- Handle
  Node 3,                                 !- Name
  {2830c60d-59d9-4b92-bc24-f898bb3bd51c}, !- Inlet Port
  ;                                       !- Outlet Port

OS:Connection,
  {2830c60d-59d9-4b92-bc24-f898bb3bd51c}, !- Handle
  {c327d6bd-83e4-4e8d-8607-400edb91558a}, !- Name
  ,                                       !- Source Object
  11,                                     !- Outlet Port
  {95c861d8-bac5-47b6-b39d-da706f54ef47}, !- Target Object
  2;                                      !- Inlet Port

OS:PortList,
  {e05d607c-3fec-4644-bdb6-8c8494caffb2}, !- Handle
  {0c527457-f61f-4d43-816f-591f926d3a03}, !- Name
  ;                                       !- HVAC Component

OS:PortList,
  {a8ecd77c-4e80-433f-978b-6446e32b4795}, !- Handle
  {6127af95-7881-4c97-bc08-f041a47ce50d}, !- Name
  ,                                       !- HVAC Component
  {5136a4cd-476a-47ec-91e7-a991f413e38e}; !- Port 1

OS:PortList,
  {fee37d08-e4e3-40bd-8644-b95dc292ad70}, !- Handle
  {fbef7378-cd09-4f21-90a1-74bb5c11d845}, !- Name
  ;                                       !- HVAC Component

OS:Node,
  {2a996fd3-93dc-433c-8a2d-d474cb865abe}, !- Handle
  Node 4,                                 !- Name
  {1d8b7080-d73a-4483-93be-e091df324214}, !- Inlet Port
  ;                                       !- Outlet Port

OS:Connection,
  {1d8b7080-d73a-4483-93be-e091df324214}, !- Handle
  {bbb8da53-5be1-4cea-9a46-0360f1311f1b}, !- Name
  ,                                       !- Source Object
  11,                                     !- Outlet Port
  {2a996fd3-93dc-433c-8a2d-d474cb865abe}, !- Target Object
  2;                                      !- Inlet Port

OS:PortList,
  {a410553f-0e61-455d-92f7-7d4c7f8fc55f}, !- Handle
  {a82159c6-e499-4d1a-a9e5-8a1a5e2c08cb}, !- Name
  ;                                       !- HVAC Component

OS:PortList,
  {ea1a1a82-4cc7-40e0-9439-472cdcd80d27}, !- Handle
  {e6154b8a-6675-4eb3-95bd-bb1eee1159f5}, !- Name
  ,                                       !- HVAC Component
  {03592927-03b1-4422-820b-086aa51e8d79}; !- Port 1

OS:PortList,
  {cbad8331-3d95-4886-b5eb-ed7a0a1aef1f}, !- Handle
  {91c832e6-704c-411a-8c49-78680d4a3bd0}, !- Name
  ;                                       !- HVAC Component

OS:Node,
  {5194e252-851a-4265-a129-ef235f52da32}, !- Handle
  Node 5,                                 !- Name
  {993f491f-3c58-46b4-bd6b-eea8f34b4a78}, !- Inlet Port
  ;                                       !- Outlet Port

OS:Connection,
  {993f491f-3c58-46b4-bd6b-eea8f34b4a78}, !- Handle
  {7d675ad0-059b-480d-939a-969b51c24547}, !- Name
  ,                                       !- Source Object
  11,                                     !- Outlet Port
  {5194e252-851a-4265-a129-ef235f52da32}, !- Target Object
  2;                                      !- Inlet Port

OS:PortList,
  {caa11181-4459-4e57-9078-e5f78acbe290}, !- Handle
  {7b5ee87f-cbe9-4253-849d-614c97913c7f}, !- Name
  ;                                       !- HVAC Component

OS:PortList,
  {8adceab5-679a-491a-8aa7-eb64a7f69d5b}, !- Handle
  {9a322d45-f601-42e5-a122-0b70d93faf8d}, !- Name
  ,                                       !- HVAC Component
  {8f4f836a-8d9d-461c-8018-8f680fed8922}; !- Port 1

OS:PortList,
  {4309b05a-51c2-41a9-bd59-d26fc9f894b1}, !- Handle
  {1c2d83ff-67ca-4729-9a4f-62a493396ac3}, !- Name
  ;                                       !- HVAC Component

OS:Node,
  {9144fd9e-65f1-4103-b702-473d6a9c7712}, !- Handle
  Node 6,                                 !- Name
  {fe2b90bb-dd29-47da-8556-bb729c496807}, !- Inlet Port
  ;                                       !- Outlet Port

OS:Connection,
  {fe2b90bb-dd29-47da-8556-bb729c496807}, !- Handle
  {1fc16954-c3b4-40ca-9a15-048ab72436ea}, !- Name
  ,                                       !- Source Object
  11,                                     !- Outlet Port
  {9144fd9e-65f1-4103-b702-473d6a9c7712}, !- Target Object
  2;                                      !- Inlet Port

OS:PortList,
  {2536e95c-66c7-41a7-9e4d-ef6fcecc4270}, !- Handle
  {9a8a89e7-936b-49af-86d3-b4846903efd5}, !- Name
  ;                                       !- HVAC Component

OS:PortList,
  {d584ed32-69e3-464a-bcf6-8aba50c16400}, !- Handle
  {736ede11-d4a8-4cc6-b0fc-f35d4107cad0}, !- Name
  ,                                       !- HVAC Component
  {8458ed44-c75c-4df9-92ef-82c177636916}; !- Port 1

OS:PortList,
  {de93e0b9-4d85-416e-b5ff-99ed2266ec18}, !- Handle
  {e3267411-a617-4856-a28f-021b72a7889c}, !- Name
  ;                                       !- HVAC Component

OS:Node,
  {7935683b-680b-4685-b970-3a353e0d1c0d}, !- Handle
  Node 7,                                 !- Name
  {b5d0c6c2-8a5b-4861-a1a1-4d70c2f1ce28}, !- Inlet Port
  ;                                       !- Outlet Port

OS:Connection,
  {b5d0c6c2-8a5b-4861-a1a1-4d70c2f1ce28}, !- Handle
  {fbf65fec-48bc-41bd-bcd2-199c2454801c}, !- Name
  ,                                       !- Source Object
  11,                                     !- Outlet Port
  {7935683b-680b-4685-b970-3a353e0d1c0d}, !- Target Object
  2;                                      !- Inlet Port

OS:PortList,
  {40600218-4037-425a-8825-18eb9bccf4b4}, !- Handle
  {697cf217-ce14-48f1-835b-6f72e28be2ba}, !- Name
  ;                                       !- HVAC Component

OS:PortList,
  {4ea7269c-678e-4908-a593-7eb7e595e423}, !- Handle
  {a63f567c-2cd9-4886-82e9-70f37361a9ed}, !- Name
  ;                                       !- HVAC Component

OS:PortList,
  {3eb81b2f-45be-4424-8722-968a36c50792}, !- Handle
  {c9993e31-6060-4dfb-895d-caefcebe4d9e}, !- Name
  ;                                       !- HVAC Component

OS:Node,
  {3d722fe4-91fa-48bd-b930-0c49044b78ed}, !- Handle
  Node 8,                                 !- Name
  {5deda298-18ce-4848-84b5-537caf2f52c4}, !- Inlet Port
  ;                                       !- Outlet Port

OS:Connection,
  {5deda298-18ce-4848-84b5-537caf2f52c4}, !- Handle
  {6dc1d8eb-7aa4-4522-a339-99067617ca57}, !- Name
  ,                                       !- Source Object
  11,                                     !- Outlet Port
  {3d722fe4-91fa-48bd-b930-0c49044b78ed}, !- Target Object
  2;                                      !- Inlet Port

OS:PortList,
  {2c38977d-39d2-46de-968c-9da45d596306}, !- Handle
  {9058e6c7-b2d2-43fe-ab64-95b6e1a4280e}, !- Name
  ;                                       !- HVAC Component

OS:PortList,
  {277bd77d-7677-424d-9a04-d7e472d00fa4}, !- Handle
  {9df60ff9-633b-40b1-b219-5a3ed21d6ada}, !- Name
  ;                                       !- HVAC Component

OS:PortList,
  {a458f815-6a9e-4407-9315-f0611f3460e3}, !- Handle
  {0fbdc8c4-0e29-481c-b4e5-85bd854fa4ca}, !- Name
  ;                                       !- HVAC Component

OS:Node,
  {5bc8e15b-a356-4469-8855-136aaf3663ab}, !- Handle
  Node 9,                                 !- Name
  {f5d124fc-2cd7-4007-9334-024b6294bab5}, !- Inlet Port
  ;                                       !- Outlet Port

OS:Connection,
  {f5d124fc-2cd7-4007-9334-024b6294bab5}, !- Handle
  {12b173a5-5bc4-4ba0-8c03-f3a81c3c5ddb}, !- Name
  ,                                       !- Source Object
  11,                                     !- Outlet Port
  {5bc8e15b-a356-4469-8855-136aaf3663ab}, !- Target Object
  2;                                      !- Inlet Port

OS:PortList,
  {8f843da7-f7c3-42f7-990b-99447e1bac4f}, !- Handle
  {d5ad81a8-5764-4262-9830-308548a7d29c}, !- Name
  ;                                       !- HVAC Component

OS:PortList,
  {0f8b0392-3e22-4737-9af6-4b5b7bc9d37e}, !- Handle
  {d8b84c72-0872-41df-bb66-882cf9e865e8}, !- Name
  ;                                       !- HVAC Component

OS:PortList,
  {b024f2a5-af8f-43f9-b499-33dca735dd1c}, !- Handle
  {4f6f9519-21f8-4b3f-9eb6-158193f0548b}, !- Name
  ;                                       !- HVAC Component

OS:Node,
  {19bad22f-e931-4898-9ce4-89d3f7fce510}, !- Handle
  Node 10,                                !- Name
  {f1c30300-8bf5-4774-b4c6-9c87033c620b}, !- Inlet Port
  ;                                       !- Outlet Port

OS:Connection,
  {f1c30300-8bf5-4774-b4c6-9c87033c620b}, !- Handle
  {cf7053c1-d4a1-4c3e-bd0f-f89f778b504f}, !- Name
  ,                                       !- Source Object
  11,                                     !- Outlet Port
  {19bad22f-e931-4898-9ce4-89d3f7fce510}, !- Target Object
  2;                                      !- Inlet Port

OS:PortList,
  {4f84feec-fbca-4015-aa41-56ddb21e4453}, !- Handle
  {fcd1ada2-7104-4756-a80f-360b2b9abdfb}, !- Name
  ;                                       !- HVAC Component

OS:PortList,
  {b93eaa88-1091-441d-a2b1-f5f28bfb30f6}, !- Handle
  {0492f3ad-458a-41af-88c6-f103d5eb49e1}, !- Name
  ;                                       !- HVAC Component

OS:PortList,
  {dc036d34-0a9c-4d7a-8952-816a28be18b2}, !- Handle
  {7787e53e-bec1-45ff-8461-532d3fc77b77}, !- Name
  ;                                       !- HVAC Component

OS:Node,
  {d3a94549-d60c-4df5-ac24-b6e2d9d909b6}, !- Handle
  Node 11,                                !- Name
  {b06d9117-326b-46b4-a74d-1ecf0703f1ca}, !- Inlet Port
  ;                                       !- Outlet Port

OS:Connection,
  {b06d9117-326b-46b4-a74d-1ecf0703f1ca}, !- Handle
  {e0038e94-4d7c-4981-9508-125d726928f4}, !- Name
  ,                                       !- Source Object
  11,                                     !- Outlet Port
  {d3a94549-d60c-4df5-ac24-b6e2d9d909b6}, !- Target Object
  2;                                      !- Inlet Port

OS:PortList,
  {46e185c2-22fd-4dd1-a7c2-9ad380896795}, !- Handle
  {6b222882-1d68-406d-8d9e-a161d25329c7}, !- Name
  ;                                       !- HVAC Component

OS:PortList,
  {da356866-6644-4625-9f14-b91b5aee7e01}, !- Handle
  {b48d735b-e068-4484-b976-71bbf3773c88}, !- Name
  ;                                       !- HVAC Component

OS:PortList,
  {89afc5a0-89ba-4cdf-9f8f-30a7e42f0e2e}, !- Handle
  {392dcfb9-3b97-4ce5-9ca6-cf01ee6e1b70}, !- Name
  ;                                       !- HVAC Component

OS:Node,
  {54450a06-ccef-428f-b824-d09a15a172f8}, !- Handle
  Node 12,                                !- Name
  {cbf9b436-1814-4395-948c-a61b5883e336}, !- Inlet Port
  ;                                       !- Outlet Port

OS:Connection,
  {cbf9b436-1814-4395-948c-a61b5883e336}, !- Handle
  {059fb35b-a9bc-4b78-a709-af927607e7ce}, !- Name
  ,                                       !- Source Object
  11,                                     !- Outlet Port
  {54450a06-ccef-428f-b824-d09a15a172f8}, !- Target Object
  2;                                      !- Inlet Port

OS:PortList,
  {c7f59141-2498-4af1-a0d6-4b26b804308d}, !- Handle
  {7827a7d9-f405-4e19-a980-cbeaa15fa901}, !- Name
  ;                                       !- HVAC Component

OS:PortList,
  {38cd341f-5626-4fab-9e32-5f60034d1f18}, !- Handle
  {5f5f334d-719f-4801-8ea4-6a3bd00f7a83}, !- Name
  ;                                       !- HVAC Component

OS:PortList,
  {799cbde9-7d6d-4473-ae1e-2da4ab43b325}, !- Handle
  {4d281343-bf27-4b81-a847-f37f25b3e130}, !- Name
  ;                                       !- HVAC Component

OS:Node,
  {d0a64b1c-0a8b-4477-990a-27652984fd6a}, !- Handle
  Node 13,                                !- Name
  {3134e7c2-2e66-4373-ae46-a672b0581222}, !- Inlet Port
  ;                                       !- Outlet Port

OS:Connection,
  {3134e7c2-2e66-4373-ae46-a672b0581222}, !- Handle
  {093f4bfd-b151-44f6-9682-7cd7890d7eed}, !- Name
  ,                                       !- Source Object
  11,                                     !- Outlet Port
  {d0a64b1c-0a8b-4477-990a-27652984fd6a}, !- Target Object
  2;                                      !- Inlet Port

OS:PortList,
  {74be93ed-ade4-4dd2-acbb-357456c1a7b0}, !- Handle
  {3813fc7c-e41f-4cf2-a6ff-716a50b200b9}, !- Name
  ;                                       !- HVAC Component

OS:PortList,
  {e5885ea8-9469-4f62-94d7-bbc87059a2ec}, !- Handle
  {8375654e-aedb-49f6-b2e2-9fd69134f67c}, !- Name
  ;                                       !- HVAC Component

OS:PortList,
  {950d17a9-8bf5-49c2-92b9-978783d7f57e}, !- Handle
  {348e8d66-6c5b-4648-8c10-e7fad0c9c906}, !- Name
  ;                                       !- HVAC Component

OS:Node,
  {dde09cf7-8cc8-417a-9a8c-047afe97907f}, !- Handle
  Node 14,                                !- Name
  {98d812ba-910b-4e18-942c-0d5aa37b7fc3}, !- Inlet Port
  ;                                       !- Outlet Port

OS:Connection,
  {98d812ba-910b-4e18-942c-0d5aa37b7fc3}, !- Handle
  {756260f0-33ca-424f-8dc2-d004c48b8df7}, !- Name
  ,                                       !- Source Object
  11,                                     !- Outlet Port
  {dde09cf7-8cc8-417a-9a8c-047afe97907f}, !- Target Object
  2;                                      !- Inlet Port

OS:PortList,
  {88b4bc00-d263-4943-92d1-4ee3cb39f388}, !- Handle
  {b864823a-c231-4a7b-be60-7a4f8dfd3644}, !- Name
  ;                                       !- HVAC Component

OS:PortList,
  {550c953e-874e-4a32-b9d7-a06cec1d50be}, !- Handle
  {dcb81655-a5b4-4463-a8ae-2aee04fe394d}, !- Name
  ;                                       !- HVAC Component

OS:PortList,
  {20d13f1e-1545-4c1c-83e3-c82fe249990b}, !- Handle
  {ab2c7aed-80ef-414e-a76b-acf8bc560989}, !- Name
  ;                                       !- HVAC Component

OS:Node,
  {5e34bb57-4d1f-4a37-8e30-78d997beb628}, !- Handle
  Node 15,                                !- Name
  {27d9e874-faa1-4dcf-b799-64d84a84aa87}, !- Inlet Port
  ;                                       !- Outlet Port

OS:Connection,
  {27d9e874-faa1-4dcf-b799-64d84a84aa87}, !- Handle
  {25bccb2e-9609-41a2-a7f2-1088ceef9688}, !- Name
  ,                                       !- Source Object
  11,                                     !- Outlet Port
  {5e34bb57-4d1f-4a37-8e30-78d997beb628}, !- Target Object
  2;                                      !- Inlet Port

OS:PortList,
  {21d7a6b2-a0f4-4a78-898c-21f02ffda094}, !- Handle
  {60781d3b-6b6a-4c01-bd1a-e74648b8270b}, !- Name
  ;                                       !- HVAC Component

OS:PortList,
  {17f7103b-b552-4ce7-b783-71b2f373930e}, !- Handle
  {0081847e-b919-4602-90d9-4416faef87f7}, !- Name
  ;                                       !- HVAC Component

OS:PortList,
  {8bb39cc7-43d5-47f5-99e7-2a5bca40ccaa}, !- Handle
  {7e049294-d127-4207-a30b-6c4698f5e308}, !- Name
  ;                                       !- HVAC Component

OS:Node,
  {3352d9e7-5f84-427d-b40c-df3f359fa5cb}, !- Handle
  Node 16,                                !- Name
  {6b779f43-0576-484d-a709-d883451c939b}, !- Inlet Port
  ;                                       !- Outlet Port

OS:Connection,
  {6b779f43-0576-484d-a709-d883451c939b}, !- Handle
  {544a8ace-0d15-4f42-8efc-81f47c3752de}, !- Name
  ,                                       !- Source Object
  11,                                     !- Outlet Port
  {3352d9e7-5f84-427d-b40c-df3f359fa5cb}, !- Target Object
  2;                                      !- Inlet Port

OS:PortList,
  {7e52ffa2-2d28-457f-8afa-b1a7cd3c7bcf}, !- Handle
  {e11cb2fd-8004-4cf4-897d-3ebbbd5a2911}, !- Name
  ;                                       !- HVAC Component

OS:PortList,
  {91b4fabb-7243-4973-83f8-211ea1018fff}, !- Handle
  {0691a2e9-ed7f-4a6c-97a2-7c6b9a1a8080}, !- Name
  ;                                       !- HVAC Component

OS:PortList,
  {4a5e807b-9342-4291-bdc9-5e3953039e47}, !- Handle
  {ee1c9702-8925-4bee-9376-073a4ada384a}, !- Name
  ;                                       !- HVAC Component

OS:Node,
  {f1e80ae8-19d3-4867-a7ca-135c843ba064}, !- Handle
  Node 17,                                !- Name
  {50b5ab98-3ad2-4340-9da5-7de9668dba73}, !- Inlet Port
  ;                                       !- Outlet Port

OS:Connection,
  {50b5ab98-3ad2-4340-9da5-7de9668dba73}, !- Handle
  {7e4341df-43a5-4ae4-a3e2-a48fa38cea66}, !- Name
  ,                                       !- Source Object
  11,                                     !- Outlet Port
  {f1e80ae8-19d3-4867-a7ca-135c843ba064}, !- Target Object
  2;                                      !- Inlet Port

OS:PortList,
  {e0db557b-0edf-43a5-8be1-e2df8dae0b12}, !- Handle
  {f9591069-8880-42fb-ab16-7e02e0c1872a}, !- Name
  ;                                       !- HVAC Component

OS:PortList,
  {f75d29e0-7055-44b3-a5a8-dcca1d8bfcab}, !- Handle
  {74549de3-75af-497f-a81e-ec7a77d31235}, !- Name
  ;                                       !- HVAC Component

OS:PortList,
  {f608a092-686b-4880-8554-f0991a1cd8f2}, !- Handle
  {7ad11ee5-2eda-48d5-b407-44758ca8841f}, !- Name
  ;                                       !- HVAC Component

OS:Node,
  {59427c51-612c-4745-9a88-855fca41d65a}, !- Handle
  Node 18,                                !- Name
  {567a5376-f08d-4605-bfd0-1eac532e3635}, !- Inlet Port
  ;                                       !- Outlet Port

OS:Connection,
  {567a5376-f08d-4605-bfd0-1eac532e3635}, !- Handle
  {a93476db-52fb-4b7c-aa4d-009a7cb8baaa}, !- Name
  ,                                       !- Source Object
  11,                                     !- Outlet Port
  {59427c51-612c-4745-9a88-855fca41d65a}, !- Target Object
  2;                                      !- Inlet Port

OS:PortList,
  {cc0285ae-a2f4-4fc6-852f-5be2b355084f}, !- Handle