
OS:Version,
  {69aafa52-bdab-4db5-a4b5-0bafe8a05b52}, !- Handle
  2.8.0;                                  !- Version Identifier

OS:Facility,
  {a70fccc0-838f-4c95-b02f-d5ca69360458}; !- Handle

OS:Site,
  {ac6b736f-285e-41eb-b879-a3634b148de6}, !- Handle
  Buffalo Niagara Intl Ap_NY_USA,         !- Name
  42.8180322642434,                       !- Latitude {deg}
  -78.850630729414,                       !- Longitude {deg}
  -5,                                     !- Time Zone {hr}
  215,                                    !- Elevation {m}
  City;                                   !- Terrain

OS:SimulationControl,
  {da9d2c5e-e9d5-42c6-ae74-a449984b0841}, !- Handle
  ,                                       !- Do Zone Sizing Calculation
  ,                                       !- Do System Sizing Calculation
  ,                                       !- Do Plant Sizing Calculation
  Yes,                                    !- Run Simulation for Sizing Periods
  No;                                     !- Run Simulation for Weather File Run Periods

OS:Sizing:Parameters,
  {cd1bdb03-baa3-46db-b74b-31a78b229bb4}, !- Handle
  1.25,                                   !- Heating Sizing Factor
  1.15;                                   !- Cooling Sizing Factor

OS:Timestep,
  {095a1827-570d-4df6-ba0f-ce5cff6abd85}, !- Handle
  1;                                      !- Number of Timesteps per Hour

OS:ShadowCalculation,
  {54778f18-d23b-4740-879f-9a1b7ebc115b}, !- Handle
  20,                                     !- Calculation Frequency
  15000;                                  !- Maximum Figures in Shadow Overlap Calculations

OS:HeatBalanceAlgorithm,
  {f2276ce6-c50f-47c8-8966-a3342271ad85}, !- Handle
  ConductionTransferFunction,             !- Algorithm
  200;                                    !- Surface Temperature Upper Limit {C}

OS:RunPeriod,
  {a9e335a7-ebe3-4704-93b1-775d93d8035f}, !- Handle
  Run Period 1,                           !- Name
  1,                                      !- Begin Month
  1,                                      !- Begin Day of Month
  12,                                     !- End Month
  31,                                     !- End Day of Month
  ,                                       !- Use Weather File Holidays and Special Days
  ,                                       !- Use Weather File Daylight Saving Period
  ,                                       !- Apply Weekend Holiday Rule
  ,                                       !- Use Weather File Rain Indicators
  ,                                       !- Use Weather File Snow Indicators
  ;                                       !- Number of Times Runperiod to be Repeated

OS:LifeCycleCost:Parameters,
  {9bea51f8-802a-4148-8e43-d68aec15935b}, !- Handle
  ,                                       !- Analysis Type
  ,                                       !- Discounting Convention
  ,                                       !- Inflation Approach
  ,                                       !- Real Discount Rate
  ,                                       !- Nominal Discount Rate
  ,                                       !- Inflation
  ,                                       !- Base Date Month
  ,                                       !- Base Date Year
  ,                                       !- Service Date Month
  ,                                       !- Service Date Year
  ;                                       !- Length of Study Period in Years

OS:YearDescription,
  {3393aae8-ca99-4087-b795-82ede5c0e403}, !- Handle
  2018,                                   !- Calendar Year
  ,                                       !- Day of Week for Start Day
  ;                                       !- Is Leap Year

OS:WeatherFile,
  {e2a8fa05-698c-4371-afd6-00e69d5a6f88}, !- Handle
  Buffalo Niagara Intl Ap,                !- City
  NY,                                     !- State Province Region
  USA,                                    !- Country
  TMY3,                                   !- Data Source
  725280,                                 !- WMO Number
  42.93,                                  !- Latitude {deg}
  -78.73,                                 !- Longitude {deg}
  -5,                                     !- Time Zone {hr}
  215,                                    !- Elevation {m}
  file:///Users/tkwasnik/github/urbanopt-example-geojson-reopt-project/run/baseline_scenario/2/006_create_typical_building_from_model/SR1/in.epw, !- Url
  6B50E0FF;                               !- Checksum

OS:Site:WaterMainsTemperature,
  {60160285-9816-432d-9c2f-39e5b8ea561f}, !- Handle
  Correlation,                            !- Calculation Method
  ,                                       !- Temperature Schedule Name
  8.96666666666667,                       !- Annual Average Outdoor Air Temperature {C}
  26.2;                                   !- Maximum Difference In Monthly Average Outdoor Air Temperatures {deltaC}

OS:SizingPeriod:DesignDay,
  {95144abe-323a-42bd-824d-60a618033e67}, !- Handle
  Buffalo Niagara Intl Ap Ann Clg .4% Condns WB=>MDB, !- Name
  27.8,                                   !- Maximum Dry-Bulb Temperature {C}
  9.3,                                    !- Daily Dry-Bulb Temperature Range {deltaC}
  23.8,                                   !- Humidity Indicating Conditions at Maximum Dry-Bulb
  98769,                                  !- Barometric Pressure {Pa}
  5.7,                                    !- Wind Speed {m/s}
  240,                                    !- Wind Direction {deg}
  0,                                      !- Sky Clearness
  0,                                      !- Rain Indicator
  0,                                      !- Snow Indicator
  21,                                     !- Day of Month
  7,                                      !- Month
  SummerDesignDay,                        !- Day Type
  0,                                      !- Daylight Saving Time Indicator
  Wetbulb,                                !- Humidity Indicating Type
  ,                                       !- Humidity Indicating Day Schedule Name
  DefaultMultipliers,                     !- Dry-Bulb Temperature Range Modifier Type
  ,                                       !- Dry-Bulb Temperature Range Modifier Schedule Name
  ASHRAETau,                              !- Solar Model Indicator
  ,                                       !- Beam Solar Day Schedule Name
  ,                                       !- Diffuse Solar Day Schedule Name
  0.462,                                  !- ASHRAE Taub {dimensionless}
  2.001;                                  !- ASHRAE Taud {dimensionless}

OS:SizingPeriod:DesignDay,
  {98be904b-40a7-4483-af85-1a18090e8158}, !- Handle
  Buffalo Niagara Intl Ap Ann Clg .4% Condns DB=>MWB, !- Name
  30.3,                                   !- Maximum Dry-Bulb Temperature {C}
  9.3,                                    !- Daily Dry-Bulb Temperature Range {deltaC}
  21.8,                                   !- Humidity Indicating Conditions at Maximum Dry-Bulb
  98769,                                  !- Barometric Pressure {Pa}
  5.7,                                    !- Wind Speed {m/s}
  240,                                    !- Wind Direction {deg}
  0,                                      !- Sky Clearness
  0,                                      !- Rain Indicator
  0,                                      !- Snow Indicator
  21,                                     !- Day of Month
  7,                                      !- Month
  SummerDesignDay,                        !- Day Type
  0,                                      !- Daylight Saving Time Indicator
  Wetbulb,                                !- Humidity Indicating Type
  ,                                       !- Humidity Indicating Day Schedule Name
  DefaultMultipliers,                     !- Dry-Bulb Temperature Range Modifier Type
  ,                                       !- Dry-Bulb Temperature Range Modifier Schedule Name
  ASHRAETau,                              !- Solar Model Indicator
  ,                                       !- Beam Solar Day Schedule Name
  ,                                       !- Diffuse Solar Day Schedule Name
  0.462,                                  !- ASHRAE Taub {dimensionless}
  2.001;                                  !- ASHRAE Taud {dimensionless}

OS:SizingPeriod:DesignDay,
  {7f4267fb-e691-4a7b-8526-5d1e5c11d5be}, !- Handle
  Buffalo Niagara Intl Ap Ann Htg 99.6% Condns DB, !- Name
  -16.3,                                  !- Maximum Dry-Bulb Temperature {C}
  0,                                      !- Daily Dry-Bulb Temperature Range {deltaC}
  -16.3,                                  !- Humidity Indicating Conditions at Maximum Dry-Bulb
  98769,                                  !- Barometric Pressure {Pa}
  5.1,                                    !- Wind Speed {m/s}
  270,                                    !- Wind Direction {deg}
  0,                                      !- Sky Clearness
  0,                                      !- Rain Indicator
  0,                                      !- Snow Indicator
  21,                                     !- Day of Month
  1,                                      !- Month
  WinterDesignDay,                        !- Day Type
  0,                                      !- Daylight Saving Time Indicator
  Wetbulb,                                !- Humidity Indicating Type
  ,                                       !- Humidity Indicating Day Schedule Name
  DefaultMultipliers,                     !- Dry-Bulb Temperature Range Modifier Type
  ,                                       !- Dry-Bulb Temperature Range Modifier Schedule Name
  ASHRAEClearSky;                         !- Solar Model Indicator

OS:ClimateZones,
  {25b260eb-0b27-4ce9-97f3-6fdd8ffa809d}, !- Handle
  ,                                       !- Active Institution
  ,                                       !- Active Year
  ASHRAE,                                 !- Climate Zone Institution Name 1
  ANSI/ASHRAE Standard 169,               !- Climate Zone Document Name 1
  2006,                                   !- Climate Zone Document Year 1
  6A;                                     !- Climate Zone Value 1

OS:Node,
  {6825b411-56c2-4376-948e-de962e91405f}, !- Handle
  Node 1,                                 !- Name
  {143c1015-f227-47af-bb2d-31b53f036bef}, !- Inlet Port
  ;                                       !- Outlet Port

OS:Connection,
  {143c1015-f227-47af-bb2d-31b53f036bef}, !- Handle
  {33b76f11-42d8-45df-abcf-a11e4b3f6ed5}, !- Name
  ,                                       !- Source Object
  11,                                     !- Outlet Port
  {6825b411-56c2-4376-948e-de962e91405f}, !- Target Object
  2;                                      !- Inlet Port

OS:PortList,
  {fb0183df-b924-400b-ae0d-e2c75cbd6809}, !- Handle
  {03e7a695-f1a2-4d92-bb20-0e8c69558649}, !- Name
  ;                                       !- HVAC Component

OS:PortList,
  {0c7065e3-cdf8-4cad-aec3-644225b052f9}, !- Handle
  {c6248456-63b9-4060-b055-304ba31ea7a3}, !- Name
  ;                                       !- HVAC Component

OS:PortList,
  {540e9d0d-8785-40c2-b3d3-f7402adf4ab6}, !- Handle
  {5674ef60-680f-4dce-884c-92733b4dbc6e}, !- Name
  ;                                       !- HVAC Component

OS:Node,
  {87802af8-8ed5-46b0-8220-3c49c1fc4e46}, !- Handle
  Node 2,                                 !- Name
  {d3b2fc1f-8d91-4439-80e4-aeef13298e88}, !- Inlet Port
  ;                                       !- Outlet Port

OS:Connection,
  {d3b2fc1f-8d91-4439-80e4-aeef13298e88}, !- Handle
  {dcb4d199-0142-4cbe-8f8a-704f765cd2bc}, !- Name
  ,                                       !- Source Object
  11,                                     !- Outlet Port
  {87802af8-8ed5-46b0-8220-3c49c1fc4e46}, !- Target Object
  2;                                      !- Inlet Port

OS:PortList,
  {e5dcd504-7f61-4e70-99e2-5096a3c0ca11}, !- Handle
  {53809ff4-48dd-4b8e-be08-8711e221559b}, !- Name
  ;                                       !- HVAC Component

OS:PortList,
  {5b4c4145-1e88-4082-b2a9-36a742bd0cd7}, !- Handle
  {49f81c42-2817-4823-9603-2dc7db7e7848}, !- Name
  ;                                       !- HVAC Component

OS:PortList,
  {1913fda6-61de-43dd-8233-84d5cfee5f8e}, !- Handle
  {0762dbc6-004b-427d-8e7a-c1775713f18f}, !- Name
  ;                                       !- HVAC Component

OS:Node,
  {c5c52597-7f38-4f1b-bf71-7aa11c6baa94}, !- Handle
  Node 3,                                 !- Name
  {439f5849-bf30-46dc-8433-f638d5f676d7}, !- Inlet Port
  ;                                       !- Outlet Port

OS:Connection,
  {439f5849-bf30-46dc-8433-f638d5f676d7}, !- Handle
  {a5e5daf5-93ad-491a-854b-d58a12cc4f90}, !- Name
  ,                                       !- Source Object
  11,                                     !- Outlet Port
  {c5c52597-7f38-4f1b-bf71-7aa11c6baa94}, !- Target Object
  2;                                      !- Inlet Port

OS:PortList,
  {1fddf747-5df1-49f9-85af-3b8ad67240df}, !- Handle
  {5de99d8a-033c-4220-93de-f787f16614e7}, !- Name
  ;                                       !- HVAC Component

OS:PortList,
  {ceee78e4-eb17-42a4-8359-9f9cec5b4c3c}, !- Handle
  {ce320de2-0364-4b8a-a9dc-cba0eec69f33}, !- Name
  ;                                       !- HVAC Component

OS:PortList,
  {b5552842-fecd-40db-abb2-1487338d8012}, !- Handle
  {2aa1f19b-5b02-4e59-b145-9d8257d14a64}, !- Name
  ;                                       !- HVAC Component

OS:Node,
  {32117dbc-fdd9-4c17-93a3-cdb0cffeaf44}, !- Handle
  Node 4,                                 !- Name
  {1af497eb-0056-46d8-bb88-788f25237df5}, !- Inlet Port
  ;                                       !- Outlet Port

OS:Connection,
  {1af497eb-0056-46d8-bb88-788f25237df5}, !- Handle
  {0f560c88-1814-46e4-920f-cb0524d3b534}, !- Name
  ,                                       !- Source Object
  11,                                     !- Outlet Port
  {32117dbc-fdd9-4c17-93a3-cdb0cffeaf44}, !- Target Object
  2;                                      !- Inlet Port

OS:PortList,
  {e9b72439-ab11-4ba8-b903-32420c825a27}, !- Handle
  {7108dfb5-916b-47f5-a80d-fa995aaa2923}, !- Name
  ;                                       !- HVAC Component

OS:PortList,
  {4364169b-5998-478c-99a2-3b2d53b4141a}, !- Handle
  {692a5d64-7937-4bad-b61a-1e3b10a90402}, !- Name
  ,                                       !- HVAC Component
  {2d3fd4e9-f598-4546-8ebd-9b71f7474643}; !- Port 1

OS:PortList,
  {79caa3d8-ad09-4e57-abe0-eb13b529e960}, !- Handle
  {a995045d-b138-4359-98f0-7284a74d7ece}, !- Name
  ;                                       !- HVAC Component

OS:Node,
  {89840399-a000-40f6-bb64-455df3d8100c}, !- Handle
  Node 5,                                 !- Name
  {7cb6b1cd-e30e-4179-adf5-d96a0444ebfe}, !- Inlet Port
  ;                                       !- Outlet Port

OS:Connection,
  {7cb6b1cd-e30e-4179-adf5-d96a0444ebfe}, !- Handle
  {d2331fa1-8ec8-4a7e-ae75-a1751bac54f5}, !- Name
  ,                                       !- Source Object
  11,                                     !- Outlet Port
  {89840399-a000-40f6-bb64-455df3d8100c}, !- Target Object
  2;                                      !- Inlet Port

OS:PortList,
  {52f5019b-18bd-4f35-b7cc-769cb2a4862d}, !- Handle
  {17e2aeaf-1bc0-475e-9a76-4c71233865df}, !- Name
  ;                                       !- HVAC Component

OS:PortList,
  {d9097ab7-8988-48a8-96fe-7341aebb8eb1}, !- Handle
  {df2a662a-5c51-4548-87a6-bec45c260b95}, !- Name
  ,                                       !- HVAC Component
  {58453e10-28ee-4920-b437-ebc44e21cdd3}; !- Port 1

OS:PortList,
  {bb6b66df-4bed-4e47-aca4-1a2f24ebb436}, !- Handle
  {d629a027-3417-40ec-8800-86945e30f265}, !- Name
  ;                                       !- HVAC Component

OS:Node,
  {90fe78c7-d697-47de-bc16-5ddc9954f402}, !- Handle
  Node 6,                                 !- Name
  {0cc0d4c4-06bf-457e-a98b-8c2b69fa5202}, !- Inlet Port
  ;                                       !- Outlet Port

OS:Connection,
  {0cc0d4c4-06bf-457e-a98b-8c2b69fa5202}, !- Handle
  {6cc79d3d-9f77-4159-8774-23a3dd9fe51a}, !- Name
  ,                                       !- Source Object
  11,                                     !- Outlet Port
  {90fe78c7-d697-47de-bc16-5ddc9954f402}, !- Target Object
  2;                                      !- Inlet Port

OS:PortList,
  {08b56762-bb89-49f9-99dc-95e8ea7ac44a}, !- Handle
  {a4aca124-4849-4e45-8ad3-6190c145aa27}, !- Name
  ;                                       !- HVAC Component

OS:PortList,
  {d7edc633-6fc7-4cee-85a7-ac06a5f1c3c6}, !- Handle
  {529b4974-43cd-4178-8158-a28a8893bfc0}, !- Name
  ,                                       !- HVAC Component
  {aa1a129d-1da0-4718-be8b-597501fdd3dd}; !- Port 1

OS:PortList,
  {de6009f0-cbad-425a-8e8f-e64b730e6e4a}, !- Handle
  {6d844f1c-8d4b-40d0-8061-6a1b706427c8}, !- Name
  ;                                       !- HVAC Component

OS:Node,
  {de05fa25-a96d-484d-a366-c504e2a6b845}, !- Handle
  Node 7,                                 !- Name
  {048cbd22-893f-40e6-9f86-1e133d575da8}, !- Inlet Port
  ;                                       !- Outlet Port

OS:Connection,
  {048cbd22-893f-40e6-9f86-1e133d575da8}, !- Handle
  {32ad9d01-24fe-44fb-aae8-e5046defc520}, !- Name
  ,                                       !- Source Object
  11,                                     !- Outlet Port
  {de05fa25-a96d-484d-a366-c504e2a6b845}, !- Target Object
  2;                                      !- Inlet Port

OS:PortList,
  {0544e4c6-9951-47ae-ba3e-771f963c0e3f}, !- Handle
  {c6b76bf3-b27f-4065-9bce-9424f8451926}, !- Name
  ;                                       !- HVAC Component

OS:PortList,
  {a7434cec-cf03-47ba-b4a9-7e9cc886f0f4}, !- Handle
  {5e8541de-872c-4f86-8f7c-e6cd304cc516}, !- Name
  ,                                       !- HVAC Component
  {132a4178-885a-4b12-a9bf-d1f0fc23684c}; !- Port 1

OS:PortList,
  {a56f22fd-38d1-46da-857a-14eadaa63a79}, !- Handle
  {86c0defc-e712-4aae-bec2-52e165a5bb84}, !- Name
  ;                                       !- HVAC Component

OS:Node,
  {01c58ce5-c45e-4f34-9693-efcccc68a279}, !- Handle
  Node 8,                                 !- Name
  {ffc0737e-2abe-4fed-8a25-7fb8a9e464c1}, !- Inlet Port
  ;                                       !- Outlet Port

OS:Connection,
  {ffc0737e-2abe-4fed-8a25-7fb8a9e464c1}, !- Handle
  {b7670b4a-1fee-4e17-8026-c8500285ea48}, !- Name
  ,                                       !- Source Object
  11,                                     !- Outlet Port
  {01c58ce5-c45e-4f34-9693-efcccc68a279}, !- Target Object
  2;                                      !- Inlet Port

OS:PortList,
  {0e2a3ccb-a5bb-496e-be4b-96b488fdc5ca}, !- Handle
  {e6b0c7cc-6e16-4549-9457-14a8cc3cb7b2}, !- Name
  ;                                       !- HVAC Component

OS:PortList,
  {f2c85989-b24a-4f78-a527-b14dbbc22bdd}, !- Handle
  {2664d702-41f4-4214-8ee6-ab55a40a8c04}, !- Name
  ,                                       !- HVAC Component
  {8fea378b-36f4-49a2-bd9c-744d71b42322}; !- Port 1

OS:PortList,
  {9ebd8203-10eb-4f03-85c6-c78946b969f5}, !- Handle
  {702fa232-881e-4cff-9c31-2e63437e15bc}, !- Name
  ;                                       !- HVAC Component

OS:Node,
  {19e84ba3-0603-477e-b452-c1445a7f848c}, !- Handle
  Node 9,                                 !- Name
  {58d90a5c-8c41-441c-a3da-e6c0b934e841}, !- Inlet Port
  ;                                       !- Outlet Port

OS:Connection,
  {58d90a5c-8c41-441c-a3da-e6c0b934e841}, !- Handle
  {8fe9a8a6-ac31-4f65-a41d-e03eeac412a3}, !- Name
  ,                                       !- Source Object
  11,                                     !- Outlet Port
  {19e84ba3-0603-477e-b452-c1445a7f848c}, !- Target Object
  2;                                      !- Inlet Port

OS:PortList,
  {dba7de97-fecb-4a51-8ab2-c4e9e109d70f}, !- Handle
  {4c32f458-4fbf-4f84-a9d9-e72061bf30c3}, !- Name
  ;                                       !- HVAC Component

OS:PortList,
  {2dc6719d-44b8-4b89-95fb-e1dbe28146bd}, !- Handle
  {654fb420-d1ab-416b-aab0-c2689b8f70a1}, !- Name
  ,                                       !- HVAC Component
  {46e2c0f0-78c2-4b78-8a59-ce86fa080cfd}; !- Port 1

OS:PortList,
  {98edb094-c367-4c51-becd-f6b58587d415}, !- Handle
  {4e382938-ec41-47ff-b33e-4bd95da6639d}, !- Name
  ;                                       !- HVAC Component

OS:Node,
  {735e1417-89ed-4052-abc5-671d9e43c651}, !- Handle
  Node 10,                                !- Name
  {fa3e3895-db9d-40c2-af8f-dc534fba0c03}, !- Inlet Port
  ;                                       !- Outlet Port

OS:Connection,
  {fa3e3895-db9d-40c2-af8f-dc534fba0c03}, !- Handle
  {b5cf0afa-2bae-414b-b192-927449da7775}, !- Name
  ,                                       !- Source Object
  11,                                     !- Outlet Port
  {735e1417-89ed-4052-abc5-671d9e43c651}, !- Target Object
  2;                                      !- Inlet Port

OS:PortList,
  {bfafca88-fd7a-4143-9df8-6b134882af08}, !- Handle
  {8eaefd72-4553-4e22-8315-a0c9c6cf5e56}, !- Name
  ;                                       !- HVAC Component

OS:PortList,
  {44be58d4-4549-470b-a05e-0767a8cec684}, !- Handle
  {43ee3631-dec7-445f-a8c9-16ab9c72937a}, !- Name
  ,                                       !- HVAC Component
  {62fca32b-f902-4fd2-b9c2-7bb6c5fb26fb}; !- Port 1

OS:PortList,
  {34c2abf6-41f0-46f5-aa5e-95c9c971d18e}, !- Handle
  {5ae14181-618e-4bc0-a519-1c06f905309b}, !- Name
  ;                                       !- HVAC Component

OS:Node,
  {ada57b57-f6e1-4621-876c-cb686e63f307}, !- Handle
  Node 11,                                !- Name
  {f48a72df-7d86-4240-ad25-f83c7956d557}, !- Inlet Port
  ;                                       !- Outlet Port

OS:Connection,
  {f48a72df-7d86-4240-ad25-f83c7956d557}, !- Handle
  {966fcbc0-ecd8-46ed-9d38-52f6760a158b}, !- Name
  ,                                       !- Source Object
  11,                                     !- Outlet Port
  {ada57b57-f6e1-4621-876c-cb686e63f307}, !- Target Object
  2;                                      !- Inlet Port

OS:PortList,
  {47eac8ef-870e-4b16-9469-3c33616a6e5d}, !- Handle
  {396eb513-15bd-4de2-b3b4-628ff4c6392e}, !- Name
  ;                                       !- HVAC Component

OS:PortList,
  {a0353ed6-723e-497d-a9fb-fd45fe9347ed}, !- Handle
  {3830489f-2499-4ae9-9f98-0fdd8112e170}, !- Name
  ,                                       !- HVAC Component
  {559df62c-546b-4da2-a3ac-4980d3984b80}; !- Port 1

OS:PortList,
  {d281612e-0f59-4d19-bdc7-dd56b42cc646}, !- Handle
  {6ac4b499-1419-4e68-a03e-4bb6dc462e4a}, !- Name
  ;                                       !- HVAC Component

OS:Node,
  {967ef811-1dc9-4fce-9b08-dc80825110b9}, !- Handle
  Node 12,                                !- Name
  {892a689e-9b41-46f1-b91a-c5b69dbe9561}, !- Inlet Port
  ;                                       !- Outlet Port

OS:Connection,
  {892a689e-9b41-46f1-b91a-c5b69dbe9561}, !- Handle
  {3450dbb9-e226-4e93-8092-58450a609a80}, !- Name
  ,                                       !- Source Object
  11,                                     !- Outlet Port
  {967ef811-1dc9-4fce-9b08-dc80825110b9}, !- Target Object
  2;                                      !- Inlet Port

OS:PortList,
  {34995e70-2b0b-4181-9ec2-b9c96f16c74a}, !- Handle
  {300e9e13-c79a-48d4-b16d-ee64499c8ad7}, !- Name
  ;                                       !- HVAC Component

OS:PortList,
  {ec99cb82-22fb-408b-b99f-044f2b1aba65}, !- Handle
  {41ab9e24-aebe-4257-af36-ed5a4c95c05c}, !- Name
  ,                                       !- HVAC Component
  {d1d51f41-007a-4b30-920a-cafa3ea4832a}; !- Port 1

OS:PortList,
  {50eaef13-85cc-4838-88d0-a08b8d04b0f1}, !- Handle
  {14d5f1ae-9204-4e69-9c9c-2ed5b20c2687}, !- Name
  ;                                       !- HVAC Component

OS:RunPeriodControl:DaylightSavingTime,
  {0d8a9f6a-7f8c-402e-94a8-a3a854678eee}, !- Handle
  2nd Sunday in March,                    !- Start Date
  1st Sunday in November;                 !- End Date

OS:People:Definition,
  {ea58db23-c1ed-46a2-b424-5e2cb07dd3b7}, !- Handle
  FullServiceRestaurant Kitchen People Definition, !- Name
  People/Area,                            !- Number of People Calculation Method
  ,                                       !- Number of People {people}
  0.0538195520835486,                     !- People per Space Floor Area {person/m2}
  ,                                       !- Space Floor Area per Person {m2/person}
  0.3;                                    !- Fraction Radiant

OS:Schedule:Ruleset,
  {68ae1eb5-0ae6-4d27-8424-412a814516be}, !- Handle
  Clothing Schedule,                      !- Name
  {617ad36a-eb2a-4599-82f4-b210a012dcf4}, !- Schedule Type Limits Name
  {8aba71de-3c2b-47fb-b98e-8dc1be9b0a1d}; !- Default Day Schedule Name

OS:Schedule:Day,
  {8aba71de-3c2b-47fb-b98e-8dc1be9b0a1d}, !- Handle
  Clothing Schedule Default Winter Clothes, !- Name
  {617ad36a-eb2a-4599-82f4-b210a012dcf4}, !- Schedule Type Limits Name
  ,                                       !- Interpolate to Timestep
  24,                                     !- Hour 1
  0,                                      !- Minute 1
  1;                                      !- Value Until Time 1

OS:Schedule:Rule,
  {1d84840b-668e-4e95-807e-40f411ad3ab8}, !- Handle
  Schedule Rule 1,                        !- Name
  {68ae1eb5-0ae6-4d27-8424-412a814516be}, !- Schedule Ruleset Name
  0,                                      !- Rule Order
  {4349e38b-7982-4099-8ea1-32a8779f1411}, !- Day Schedule Name
  ,                                       !- Apply Sunday
  ,                                       !- Apply Monday
  ,                                       !- Apply Tuesday
  ,                                       !- Apply Wednesday
  ,                                       !- Apply Thursday
  ,                                       !- Apply Friday
  ,                                       !- Apply Saturday
  ,                                       !- Apply Holiday
  DateRange,                              !- Date Specification Type
  5,                                      !- Start Month
  1,                                      !- Start Day
  9,                                      !- End Month
  30;                                     !- End Day

OS:Schedule:Day,
  {4349e38b-7982-4099-8ea1-32a8779f1411}, !- Handle
  Clothing Schedule Summer Clothes,       !- Name
  {617ad36a-eb2a-4599-82f4-b210a012dcf4}, !- Schedule Type Limits Name
  ,                                       !- Interpolate to Timestep
  24,                                     !- Hour 1
  0,                                      !- Minute 1
  0.5;                                    !- Value Until Time 1

OS:ScheduleTypeLimits,
  {617ad36a-eb2a-4599-82f4-b210a012dcf4}, !- Handle
  ClothingInsulation,                     !- Name
  0,                                      !- Lower Limit Value
  ,                                       !- Upper Limit Value
  Continuous,                             !- Numeric Type
  ClothingInsulation;                     !- Unit Type

OS:Schedule:Ruleset,
  {623bcdf9-98d2-44f6-b565-065214781c55}, !- Handle
  Air Velocity Schedule,                  !- Name
  {da199403-7bff-4e43-acf1-5350486b9c68}, !- Schedule Type Limits Name
  {dd0bcd12-9d55-4e85-8739-129cd1f35d5a}; !- Default Day Schedule Name

OS:Schedule:Day,
  {dd0bcd12-9d55-4e85-8739-129cd1f35d5a}, !- Handle
  Air Velocity Schedule Default,          !- Name
  {da199403-7bff-4e43-acf1-5350486b9c68}, !- Schedule Type Limits Name
  ,                                       !- Interpolate to Timestep
  24,                                     !- Hour 1
  0,                                      !- Minute 1
  0.2;                                    !- Value Until Time 1

OS:ScheduleTypeLimits,
  {da199403-7bff-4e43-acf1-5350486b9c68}, !- Handle
  Velocity,                               !- Name
  0,                                      !- Lower Limit Value
  ,                                       !- Upper Limit Value
  Continuous,                             !- Numeric Type
  Velocity;                               !- Unit Type

OS:Schedule:Ruleset,
  {a7607bb6-b21b-4266-a785-4b18c954de67}, !- Handle
  Work Efficiency Schedule,               !- Name
  {85bde8e6-6d11-408d-8077-3a7e306598b3}, !- Schedule Type Limits Name
  {dcd41af3-2bd7-4dbb-9d8a-9529b509a013}; !- Default Day Schedule Name

OS:Schedule:Day,
  {dcd41af3-2bd7-4dbb-9d8a-9529b509a013}, !- Handle
  Work Efficiency Schedule Default,       !- Name
  {85bde8e6-6d11-408d-8077-3a7e306598b3}, !- Schedule Type Limits Name
  ,                                       !- Interpolate to Timestep
  24,                                     !- Hour 1
  0,                                      !- Minute 1
  0;                                      !- Value Until Time 1

OS:ScheduleTypeLimits,
  {85bde8e6-6d11-408d-8077-3a7e306598b3}, !- Handle
  Fractional,                             !- Name
  0,                                      !- Lower Limit Value
  1,                                      !- Upper Limit Value
  Continuous;                             !- Numeric Type

OS:Lights:Definition,
  {3e5a752d-b598-48f9-b63e-533e696e048e}, !- Handle
  FullServiceRestaurant Kitchen Lights Definition, !- Name
  Watts/Area,                             !- Design Level Calculation Method
  ,                                       !- Lighting Level {W}
  12.9166925000517,                       !- Watts per Space Floor Area {W/m2}
  ,                                       !- Watts per Person {W/person}
  0.7,                                    !- Fraction Radiant
  0.2;                                    !- Fraction Visible

OS:AdditionalProperties,
  {c33c7ebc-e735-4bdb-be6e-a39a9a6e8eb5}, !- Handle