
OS:Version,
  {d228756b-2523-4971-8f4e-22483846878d}, !- Handle
  2.8.0;                                  !- Version Identifier

OS:Facility,
  {9af526dd-e41a-429a-b26c-b4bf1fba0d81}; !- Handle

OS:Site,
  {e8f36b59-f948-4218-9c34-1c9f68835572}, !- Handle
  Buffalo Niagara Intl Ap_NY_USA,         !- Name
  42.8140105966668,                       !- Latitude {deg}
  -78.8486903952376,                      !- Longitude {deg}
  -5,                                     !- Time Zone {hr}
  215,                                    !- Elevation {m}
  City;                                   !- Terrain

OS:SimulationControl,
  {3cda2731-1701-4434-968b-b73056d27dfe}, !- Handle
  ,                                       !- Do Zone Sizing Calculation
  ,                                       !- Do System Sizing Calculation
  ,                                       !- Do Plant Sizing Calculation
  Yes,                                    !- Run Simulation for Sizing Periods
  No;                                     !- Run Simulation for Weather File Run Periods

OS:Sizing:Parameters,
  {9d2ead41-30a9-4f12-b325-5ca4dc328887}, !- Handle
  1.25,                                   !- Heating Sizing Factor
  1.15;                                   !- Cooling Sizing Factor

OS:Timestep,
  {37068d7d-b8e5-4d75-8571-7d2f160cccbf}, !- Handle
  1;                                      !- Number of Timesteps per Hour

OS:ShadowCalculation,
  {a7827cf4-d356-458c-a714-af0a6a07029b}, !- Handle
  20,                                     !- Calculation Frequency
  15000;                                  !- Maximum Figures in Shadow Overlap Calculations

OS:HeatBalanceAlgorithm,
  {a6490074-4ab5-4760-b47c-8582fb60cf52}, !- Handle
  ConductionTransferFunction,             !- Algorithm
  200;                                    !- Surface Temperature Upper Limit {C}

OS:RunPeriod,
  {9ff325a5-5624-4d53-911e-6bd0f1a7b54a}, !- Handle
  Run Period 1,                           !- Name
  1,                                      !- Begin Month
  1,                                      !- Begin Day of Month
  12,                                     !- End Month
  31,                                     !- End Day of Month
  ,                                       !- Use Weather File Holidays and Special Days
  ,                                       !- Use Weather File Daylight Saving Period
  ,                                       !- Apply Weekend Holiday Rule
  ,                                       !- Use Weather File Rain Indicators
  ,                                       !- Use Weather File Snow Indicators
  ;                                       !- Number of Times Runperiod to be Repeated

OS:LifeCycleCost:Parameters,
  {84fe6f1c-2810-4ebb-8f7f-860b7a0d6999}, !- Handle
  ,                                       !- Analysis Type
  ,                                       !- Discounting Convention
  ,                                       !- Inflation Approach
  ,                                       !- Real Discount Rate
  ,                                       !- Nominal Discount Rate
  ,                                       !- Inflation
  ,                                       !- Base Date Month
  ,                                       !- Base Date Year
  ,                                       !- Service Date Month
  ,                                       !- Service Date Year
  ;                                       !- Length of Study Period in Years

OS:YearDescription,
  {84926d0b-44ef-4096-bb74-5044795edfd4}, !- Handle
  2018,                                   !- Calendar Year
  ,                                       !- Day of Week for Start Day
  ;                                       !- Is Leap Year

OS:WeatherFile,
  {4657660e-8b3d-4791-be97-35d976e8021d}, !- Handle
  Buffalo Niagara Intl Ap,                !- City
  NY,                                     !- State Province Region
  USA,                                    !- Country
  TMY3,                                   !- Data Source
  725280,                                 !- WMO Number
  42.93,                                  !- Latitude {deg}
  -78.73,                                 !- Longitude {deg}
  -5,                                     !- Time Zone {hr}
  215,                                    !- Elevation {m}
  file:///Users/tkwasnik/github/urbanopt-example-geojson-reopt-project/run/baseline_scenario/6/006_create_typical_building_from_model/SR1/in.epw, !- Url
  6B50E0FF;                               !- Checksum

OS:Site:WaterMainsTemperature,
  {b39fa180-ac4c-4aa9-b5a6-ffa7392c9779}, !- Handle
  Correlation,                            !- Calculation Method
  ,                                       !- Temperature Schedule Name
  8.96666666666667,                       !- Annual Average Outdoor Air Temperature {C}
  26.2;                                   !- Maximum Difference In Monthly Average Outdoor Air Temperatures {deltaC}

OS:SizingPeriod:DesignDay,
  {4e3fff47-bfa3-4e75-b34c-ef7cdafb50d1}, !- Handle
  Buffalo Niagara Intl Ap Ann Clg .4% Condns WB=>MDB, !- Name
  27.8,                                   !- Maximum Dry-Bulb Temperature {C}
  9.3,                                    !- Daily Dry-Bulb Temperature Range {deltaC}
  23.8,                                   !- Humidity Indicating Conditions at Maximum Dry-Bulb
  98769,                                  !- Barometric Pressure {Pa}
  5.7,                                    !- Wind Speed {m/s}
  240,                                    !- Wind Direction {deg}
  0,                                      !- Sky Clearness
  0,                                      !- Rain Indicator
  0,                                      !- Snow Indicator
  21,                                     !- Day of Month
  7,                                      !- Month
  SummerDesignDay,                        !- Day Type
  0,                                      !- Daylight Saving Time Indicator
  Wetbulb,                                !- Humidity Indicating Type
  ,                                       !- Humidity Indicating Day Schedule Name
  DefaultMultipliers,                     !- Dry-Bulb Temperature Range Modifier Type
  ,                                       !- Dry-Bulb Temperature Range Modifier Schedule Name
  ASHRAETau,                              !- Solar Model Indicator
  ,                                       !- Beam Solar Day Schedule Name
  ,                                       !- Diffuse Solar Day Schedule Name
  0.462,                                  !- ASHRAE Taub {dimensionless}
  2.001;                                  !- ASHRAE Taud {dimensionless}

OS:SizingPeriod:DesignDay,
  {b6ec8c95-2057-4b95-8fab-998de283890e}, !- Handle
  Buffalo Niagara Intl Ap Ann Clg .4% Condns DB=>MWB, !- Name
  30.3,                                   !- Maximum Dry-Bulb Temperature {C}
  9.3,                                    !- Daily Dry-Bulb Temperature Range {deltaC}
  21.8,                                   !- Humidity Indicating Conditions at Maximum Dry-Bulb
  98769,                                  !- Barometric Pressure {Pa}
  5.7,                                    !- Wind Speed {m/s}
  240,                                    !- Wind Direction {deg}
  0,                                      !- Sky Clearness
  0,                                      !- Rain Indicator
  0,                                      !- Snow Indicator
  21,                                     !- Day of Month
  7,                                      !- Month
  SummerDesignDay,                        !- Day Type
  0,                                      !- Daylight Saving Time Indicator
  Wetbulb,                                !- Humidity Indicating Type
  ,                                       !- Humidity Indicating Day Schedule Name
  DefaultMultipliers,                     !- Dry-Bulb Temperature Range Modifier Type
  ,                                       !- Dry-Bulb Temperature Range Modifier Schedule Name
  ASHRAETau,                              !- Solar Model Indicator
  ,                                       !- Beam Solar Day Schedule Name
  ,                                       !- Diffuse Solar Day Schedule Name
  0.462,                                  !- ASHRAE Taub {dimensionless}
  2.001;                                  !- ASHRAE Taud {dimensionless}

OS:SizingPeriod:DesignDay,
  {2afd1985-5000-42a4-af08-96cbba9739ed}, !- Handle
  Buffalo Niagara Intl Ap Ann Htg 99.6% Condns DB, !- Name
  -16.3,                                  !- Maximum Dry-Bulb Temperature {C}
  0,                                      !- Daily Dry-Bulb Temperature Range {deltaC}
  -16.3,                                  !- Humidity Indicating Conditions at Maximum Dry-Bulb
  98769,                                  !- Barometric Pressure {Pa}
  5.1,                                    !- Wind Speed {m/s}
  270,                                    !- Wind Direction {deg}
  0,                                      !- Sky Clearness
  0,                                      !- Rain Indicator
  0,                                      !- Snow Indicator
  21,                                     !- Day of Month
  1,                                      !- Month
  WinterDesignDay,                        !- Day Type
  0,                                      !- Daylight Saving Time Indicator
  Wetbulb,                                !- Humidity Indicating Type
  ,                                       !- Humidity Indicating Day Schedule Name
  DefaultMultipliers,                     !- Dry-Bulb Temperature Range Modifier Type
  ,                                       !- Dry-Bulb Temperature Range Modifier Schedule Name
  ASHRAEClearSky;                         !- Solar Model Indicator

OS:ClimateZones,
  {bf7738e4-da5f-456e-8b40-07bf2a1dd15e}, !- Handle
  ,                                       !- Active Institution
  ,                                       !- Active Year
  ASHRAE,                                 !- Climate Zone Institution Name 1
  ANSI/ASHRAE Standard 169,               !- Climate Zone Document Name 1
  2006,                                   !- Climate Zone Document Year 1
  6A;                                     !- Climate Zone Value 1

OS:Node,
  {df7a5251-23cf-4986-b93b-b5c03f4050b7}, !- Handle
  Node 1,                                 !- Name
  {9c5bc311-841c-486d-bee2-b35495dace10}, !- Inlet Port
  ;                                       !- Outlet Port

OS:Connection,
  {9c5bc311-841c-486d-bee2-b35495dace10}, !- Handle
  {53589f11-eca3-4a5a-b851-c3cd41da5075}, !- Name
  ,                                       !- Source Object
  11,                                     !- Outlet Port
  {df7a5251-23cf-4986-b93b-b5c03f4050b7}, !- Target Object
  2;                                      !- Inlet Port

OS:PortList,
  {61e52495-5395-4480-ae24-4c7fe67a62f1}, !- Handle
  {628a46af-5eb4-412e-b32e-d92c4dfa63b8}, !- Name
  ;                                       !- HVAC Component

OS:PortList,
  {08d38bb6-acf5-4a05-9b4b-df689cf0a566}, !- Handle
  {e82d1b99-e2a0-4927-ab7f-60a822fc3167}, !- Name
  ;                                       !- HVAC Component

OS:PortList,
  {232885fa-17a2-4181-9e0f-3a02f788cd92}, !- Handle
  {750a81f4-1ec7-4ce0-af57-22a4b3795d8c}, !- Name
  ;                                       !- HVAC Component

OS:Node,
  {c4fcad91-ddec-47a8-9db2-e5c3ec171b5a}, !- Handle
  Node 2,                                 !- Name
  {327dbaa8-503d-4c45-a8fe-33037da527d7}, !- Inlet Port
  ;                                       !- Outlet Port

OS:Connection,
  {327dbaa8-503d-4c45-a8fe-33037da527d7}, !- Handle
  {0397f7dc-6a66-4e2b-971a-0d46029f5170}, !- Name
  ,                                       !- Source Object
  11,                                     !- Outlet Port
  {c4fcad91-ddec-47a8-9db2-e5c3ec171b5a}, !- Target Object
  2;                                      !- Inlet Port

OS:PortList,
  {5140b401-fe42-4795-abc7-9ccfcb92cdef}, !- Handle
  {e6a400bc-c77b-462c-8465-22c8c23a81b8}, !- Name
  ;                                       !- HVAC Component

OS:PortList,
  {f98d963b-6469-4e5d-ade8-5c2491805b3d}, !- Handle
  {ca01ee17-30f4-48c1-bac0-501b3e927326}, !- Name
  ;                                       !- HVAC Component

OS:PortList,
  {a728537d-460b-470f-b88d-9b667716fc5d}, !- Handle
  {d563ee88-170d-4c6e-8602-9b4664824c6b}, !- Name
  ;                                       !- HVAC Component

OS:Node,
  {44a6a98f-bb4e-466a-9305-cfa1190701e3}, !- Handle
  Node 3,                                 !- Name
  {58405f48-be00-4736-8f42-b75d07225bdc}, !- Inlet Port
  ;                                       !- Outlet Port

OS:Connection,
  {58405f48-be00-4736-8f42-b75d07225bdc}, !- Handle
  {5a64ad8d-2932-4f32-b93e-848dcbdf4147}, !- Name
  ,                                       !- Source Object
  11,                                     !- Outlet Port
  {44a6a98f-bb4e-466a-9305-cfa1190701e3}, !- Target Object
  2;                                      !- Inlet Port

OS:PortList,
  {85ad7911-1152-4878-81c7-ff9c99eab792}, !- Handle
  {8ac473bc-513b-49cb-9857-ba575f686bcf}, !- Name
  ;                                       !- HVAC Component

OS:PortList,
  {7bb6eb3e-b818-4054-ae61-d17c72936636}, !- Handle
  {a7256171-0b82-414a-a25d-86b835abab79}, !- Name
  ;                                       !- HVAC Component

OS:PortList,
  {3bd417e4-be72-4f91-903d-a4438a4fe010}, !- Handle
  {b9045ce4-e2ba-4a32-bb75-bbffafb2a8f3}, !- Name
  ;                                       !- HVAC Component

OS:Node,
  {cfbf6c06-276f-463e-9ba8-5c00cd94b5d7}, !- Handle
  Node 4,                                 !- Name
  {6f29efa6-3f6f-4904-a8e8-4bf5ab54ad48}, !- Inlet Port
  ;                                       !- Outlet Port

OS:Connection,
  {6f29efa6-3f6f-4904-a8e8-4bf5ab54ad48}, !- Handle
  {db339230-0dfb-4aec-aafb-50c35cda88dd}, !- Name
  ,                                       !- Source Object
  11,                                     !- Outlet Port
  {cfbf6c06-276f-463e-9ba8-5c00cd94b5d7}, !- Target Object
  2;                                      !- Inlet Port

OS:PortList,
  {3f62f605-7355-484a-ba5f-cdcc751cbf50}, !- Handle
  {59a58d7a-2419-4134-a616-df43d7af6cc0}, !- Name
  ;                                       !- HVAC Component

OS:PortList,
  {d50e0cd6-bb26-4d5b-8d70-d6bf76cdabc3}, !- Handle
  {6c94f356-578e-4dba-9ba9-a20240abe8cd}, !- Name
  ;                                       !- HVAC Component

OS:PortList,
  {dcc796ea-8498-4b8c-9bed-7b6945c79cc6}, !- Handle
  {9bc59336-40a3-4755-a1ca-d8bdae6a0e4c}, !- Name
  ;                                       !- HVAC Component

OS:Node,
  {84ce7f53-7ae3-4c1d-9e71-6c37d6220c2d}, !- Handle
  Node 5,                                 !- Name
  {a683d4e6-6b34-4ebc-955e-e0dcd5e3ce16}, !- Inlet Port
  ;                                       !- Outlet Port

OS:Connection,
  {a683d4e6-6b34-4ebc-955e-e0dcd5e3ce16}, !- Handle
  {7519cbaf-c5a9-4daf-b288-55f5a7042e5d}, !- Name
  ,                                       !- Source Object
  11,                                     !- Outlet Port
  {84ce7f53-7ae3-4c1d-9e71-6c37d6220c2d}, !- Target Object
  2;                                      !- Inlet Port

OS:PortList,
  {754aa99e-8b62-4f8a-b92e-ea93146f6949}, !- Handle
  {e6e953a4-0f0b-4441-9f39-52547cf0fa2d}, !- Name
  ;                                       !- HVAC Component

OS:PortList,
  {cdd55fe3-53b8-4006-84e6-7c9dd4eccd50}, !- Handle
  {276ddee9-da45-4df9-9468-781d267d6408}, !- Name
  ;                                       !- HVAC Component

OS:PortList,
  {42485b1c-1cb0-466f-b6fd-96c5c7da63ba}, !- Handle
  {c6d9fdf8-cbc2-487c-ad85-c52d4329e28b}, !- Name
  ;                                       !- HVAC Component

OS:Node,
  {93f9dcc9-e50a-4b7d-aad3-3365563a6cea}, !- Handle
  Node 6,                                 !- Name
  {369fbe1b-866f-468d-9a17-3d9902b97bbb}, !- Inlet Port
  ;                                       !- Outlet Port

OS:Connection,
  {369fbe1b-866f-468d-9a17-3d9902b97bbb}, !- Handle
  {8066999b-3f00-4cbc-b284-38161b56afa7}, !- Name
  ,                                       !- Source Object
  11,                                     !- Outlet Port
  {93f9dcc9-e50a-4b7d-aad3-3365563a6cea}, !- Target Object
  2;                                      !- Inlet Port

OS:PortList,
  {5ce76a11-f28c-4744-b4bb-2ffbe447fc68}, !- Handle
  {25394229-76b4-48b9-bc5f-84350039ff7b}, !- Name
  ;                                       !- HVAC Component

OS:PortList,
  {f49c0ff2-9719-488a-b244-49367edb5284}, !- Handle
  {32d426e2-ba1b-40b9-b8b3-10faf8b6157f}, !- Name
  ;                                       !- HVAC Component

OS:PortList,
  {9c56179e-8475-48f5-bfd2-6669e82fc198}, !- Handle
  {7f20fdd0-0a32-4688-8506-ee63ba65c101}, !- Name
  ;                                       !- HVAC Component

OS:Node,
  {dba60457-fcd7-431e-8af9-7f00fbb606d9}, !- Handle
  Node 7,                                 !- Name
  {67aedb0d-8a0f-4439-87a1-16672e222acb}, !- Inlet Port
  ;                                       !- Outlet Port

OS:Connection,
  {67aedb0d-8a0f-4439-87a1-16672e222acb}, !- Handle
  {f62b68ee-12ed-4dd5-a7f4-f7774fbae595}, !- Name
  ,                                       !- Source Object
  11,                                     !- Outlet Port
  {dba60457-fcd7-431e-8af9-7f00fbb606d9}, !- Target Object
  2;                                      !- Inlet Port

OS:PortList,
  {8884da3f-69af-4df6-ad6f-37a9214611aa}, !- Handle
  {91ff8335-e6a7-4653-90fe-f3a270978526}, !- Name
  ;                                       !- HVAC Component

OS:PortList,
  {f31ed986-0404-459c-aabe-c13e3451c478}, !- Handle
  {b0680389-c15e-42a5-b7ca-cacf20929ca2}, !- Name
  ;                                       !- HVAC Component

OS:PortList,
  {31cffcd7-3e8d-438e-9af0-a7f5b1d0aa30}, !- Handle
  {8af27c7c-268c-421a-a220-ce6fd460727e}, !- Name
  ;                                       !- HVAC Component

OS:Node,
  {a092801d-e88e-4cca-bfe3-0e7d107233f4}, !- Handle
  Node 8,                                 !- Name
  {15c0e6e9-ed3c-47d3-9e92-d5db814fd447}, !- Inlet Port
  ;                                       !- Outlet Port

OS:Connection,
  {15c0e6e9-ed3c-47d3-9e92-d5db814fd447}, !- Handle
  {f2b6370a-7540-441e-a436-b2537b617879}, !- Name
  ,                                       !- Source Object
  11,                                     !- Outlet Port
  {a092801d-e88e-4cca-bfe3-0e7d107233f4}, !- Target Object
  2;                                      !- Inlet Port

OS:PortList,
  {af755b31-081b-4eb5-9188-3d0dcd7d2bb5}, !- Handle
  {325ef914-28e8-4371-afbc-51156a465cc6}, !- Name
  ;                                       !- HVAC Component

OS:PortList,
  {fe305aa2-cbdb-4a76-af9f-03337e0220e0}, !- Handle
  {d3a7262a-1743-40e5-826c-00d51ac60f26}, !- Name
  ;                                       !- HVAC Component

OS:PortList,
  {cd4a3c33-604c-4b7a-8072-4dab89cd3ce4}, !- Handle
  {38d8dbde-1161-4203-ab4d-050bd4c4bed3}, !- Name
  ;                                       !- HVAC Component

OS:Node,
  {ed49b564-9e89-4f5d-9948-9269dd3b1b68}, !- Handle
  Node 9,                                 !- Name
  {5ff09492-2aff-4572-8ab1-92eb471bb045}, !- Inlet Port
  ;                                       !- Outlet Port

OS:Connection,
  {5ff09492-2aff-4572-8ab1-92eb471bb045}, !- Handle
  {0f29c7d2-483d-4209-bc36-1d1e92210625}, !- Name
  ,                                       !- Source Object
  11,                                     !- Outlet Port
  {ed49b564-9e89-4f5d-9948-9269dd3b1b68}, !- Target Object
  2;                                      !- Inlet Port

OS:PortList,
  {973d03ab-02fb-432c-a760-0e551290e4fc}, !- Handle
  {dbf23ebf-7882-4def-8f80-7d704a350e33}, !- Name
  ;                                       !- HVAC Component

OS:PortList,
  {210bf2e9-ef3f-45fb-8b48-89bdd8e2dc74}, !- Handle
  {6d3535a8-15e9-495e-97e5-710f08e99f03}, !- Name
  ;                                       !- HVAC Component

OS:PortList,
  {7ee30a0a-3300-4e95-a944-0035837e8d31}, !- Handle
  {c5972dc6-af34-42f8-998c-139a98073100}, !- Name
  ;                                       !- HVAC Component

OS:Node,
  {4e9e79fd-c07b-40ab-b089-f1f82767328f}, !- Handle
  Node 10,                                !- Name
  {3f738260-d86b-4e32-8777-a62e10e590ad}, !- Inlet Port
  ;                                       !- Outlet Port

OS:Connection,
  {3f738260-d86b-4e32-8777-a62e10e590ad}, !- Handle
  {57ffb261-067c-4f8a-a354-3bb9f9862129}, !- Name
  ,                                       !- Source Object
  11,                                     !- Outlet Port
  {4e9e79fd-c07b-40ab-b089-f1f82767328f}, !- Target Object
  2;                                      !- Inlet Port

OS:PortList,
  {071f946d-4fb7-4644-be1d-f79000baff3b}, !- Handle
  {517606c6-21d5-460d-a9bd-c03899ee0632}, !- Name
  ;                                       !- HVAC Component

OS:PortList,
  {8a9fe97b-d990-4f5e-bd90-42e6b4e34866}, !- Handle
  {26547916-f14e-4999-82a7-20df08bd1472}, !- Name
  ;                                       !- HVAC Component

OS:PortList,
  {a7d7a5e7-25ba-43a0-bfec-5ee2178bd796}, !- Handle
  {c0f476ee-8786-432e-8e78-5dbc1d56fcc3}, !- Name
  ;                                       !- HVAC Component

OS:Node,
  {1b1e88b3-cf77-4314-9d08-e4a1432f579a}, !- Handle
  Node 11,                                !- Name
  {8bd8923f-b71f-471b-84ef-a0ddb48ffa26}, !- Inlet Port
  ;                                       !- Outlet Port

OS:Connection,
  {8bd8923f-b71f-471b-84ef-a0ddb48ffa26}, !- Handle
  {b340b9b9-ec3e-4a5c-aaa3-b9de82ce319e}, !- Name
  ,                                       !- Source Object
  11,                                     !- Outlet Port
  {1b1e88b3-cf77-4314-9d08-e4a1432f579a}, !- Target Object
  2;                                      !- Inlet Port

OS:PortList,
  {c3bfcf0a-e46e-4755-941a-d6af5c040849}, !- Handle
  {7e278b1e-85c5-432d-9157-05b4f8dd7cb8}, !- Name
  ;                                       !- HVAC Component

OS:PortList,
  {268d03b7-9893-47d0-bbe9-558322d680ac}, !- Handle
  {df09ebc8-bee8-4e2d-857b-7b5afe7195f6}, !- Name
  ;                                       !- HVAC Component

OS:PortList,
  {31604ebf-2cc1-4fc8-8653-b4ea74de6ee7}, !- Handle
  {c0382624-4157-4a36-876c-20aafe149d9c}, !- Name
  ;                                       !- HVAC Component

OS:Node,
  {f1165758-86e0-4394-a95c-3e1175fe2373}, !- Handle
  Node 12,                                !- Name
  {85ade09c-9b3f-48fd-abd5-70a12dc04825}, !- Inlet Port
  ;                                       !- Outlet Port

OS:Connection,
  {85ade09c-9b3f-48fd-abd5-70a12dc04825}, !- Handle
  {ff9c688a-608c-4681-b87f-fef0222782eb}, !- Name
  ,                                       !- Source Object
  11,                                     !- Outlet Port
  {f1165758-86e0-4394-a95c-3e1175fe2373}, !- Target Object
  2;                                      !- Inlet Port

OS:PortList,
  {f1c3b00e-ec68-4cf6-ae27-891cc40b1f5b}, !- Handle
  {cf209866-b710-4d24-9f8f-f9eed0c52e41}, !- Name
  ;                                       !- HVAC Component

OS:PortList,
  {8c7e61ad-c5d9-428c-8bdf-077cbb06e528}, !- Handle
  {34d00549-a31a-48cf-91e7-2dc9cdf33a65}, !- Name
  ;                                       !- HVAC Component

OS:PortList,
  {fcf3eb00-c112-4b34-9176-95820c391025}, !- Handle
  {90e9f2b5-74f0-4053-8928-7d47078d595e}, !- Name
  ;                                       !- HVAC Component

OS:RunPeriodControl:DaylightSavingTime,
  {4ec911d6-6cdd-4223-8f86-aaf18b6c54d4}, !- Handle
  2nd Sunday in March,                    !- Start Date
  1st Sunday in November;                 !- End Date

OS:People:Definition,
  {71181c3e-f738-40fe-88a4-f5fc7ada2b9b}, !- Handle
  MidriseApartment Office People Definition, !- Name
  People/Area,                            !- Number of People Calculation Method
  ,                                       !- Number of People {people}
  0.0227118509792575,                     !- People per Space Floor Area {person/m2}
  ,                                       !- Space Floor Area per Person {m2/person}
  0.3;                                    !- Fraction Radiant

OS:Schedule:Ruleset,
  {4db643f1-dbf9-4e5a-9be9-4883b47423e0}, !- Handle
  Clothing Schedule,                      !- Name
  {4d64f356-cf08-4b8e-8444-3fe5d2800bd6}, !- Schedule Type Limits Name
  {00bf019f-8f22-4d76-9850-0562045e31b7}; !- Default Day Schedule Name

OS:Schedule:Day,
  {00bf019f-8f22-4d76-9850-0562045e31b7}, !- Handle
  Clothing Schedule Default Winter Clothes, !- Name
  {4d64f356-cf08-4b8e-8444-3fe5d2800bd6}, !- Schedule Type Limits Name
  ,                                       !- Interpolate to Timestep
  24,                                     !- Hour 1
  0,                                      !- Minute 1
  1;                                      !- Value Until Time 1

OS:Schedule:Rule,
  {afa330a9-6983-41de-ade7-65f3e197f5fb}, !- Handle
  Schedule Rule 1,                        !- Name
  {4db643f1-dbf9-4e5a-9be9-4883b47423e0}, !- Schedule Ruleset Name
  0,                                      !- Rule Order
  {05167dae-4313-4580-a9a2-af33cf73522a}, !- Day Schedule Name
  ,                                       !- Apply Sunday
  ,                                       !- Apply Monday
  ,                                       !- Apply Tuesday
  ,                                       !- Apply Wednesday
  ,                                       !- Apply Thursday
  ,                                       !- Apply Friday
  ,                                       !- Apply Saturday
  ,                                       !- Apply Holiday
  DateRange,                              !- Date Specification Type
  5,                                      !- Start Month
  1,                                      !- Start Day
  9,                                      !- End Month
  30;                                     !- End Day

OS:Schedule:Day,
  {05167dae-4313-4580-a9a2-af33cf73522a}, !- Handle
  Clothing Schedule Summer Clothes,       !- Name
  {4d64f356-cf08-4b8e-8444-3fe5d2800bd6}, !- Schedule Type Limits Name
  ,                                       !- Interpolate to Timestep
  24,                                     !- Hour 1
  0,                                      !- Minute 1
  0.5;                                    !- Value Until Time 1

OS:ScheduleTypeLimits,
  {4d64f356-cf08-4b8e-8444-3fe5d2800bd6}, !- Handle
  ClothingInsulation,                     !- Name
  0,                                      !- Lower Limit Value
  ,                                       !- Upper Limit Value
  Continuous,                             !- Numeric Type
  ClothingInsulation;                     !- Unit Type

OS:Schedule:Ruleset,
  {49c9d766-881b-41bd-8d8c-3e43a9a31e9c}, !- Handle
  Air Velocity Schedule,                  !- Name
  {918e7226-f9ba-4e80-afef-6b05039f6719}, !- Schedule Type Limits Name
  {174c5933-45ba-4307-8734-0c04aa744a6d}; !- Default Day Schedule Name

OS:Schedule:Day,
  {174c5933-45ba-4307-8734-0c04aa744a6d}, !- Handle
  Air Velocity Schedule Default,          !- Name
  {918e7226-f9ba-4e80-afef-6b05039f6719}, !- Schedule Type Limits Name
  ,                                       !- Interpolate to Timestep
  24,                                     !- Hour 1
  0,                                      !- Minute 1
  0.2;                                    !- Value Until Time 1

OS:ScheduleTypeLimits,
  {918e7226-f9ba-4e80-afef-6b05039f6719}, !- Handle
  Velocity,                               !- Name
  0,                                      !- Lower Limit Value
  ,                                       !- Upper Limit Value
  Continuous,                             !- Numeric Type
  Velocity;                               !- Unit Type

OS:Schedule:Ruleset,
  {0033c7dd-394c-427b-9907-7a493040207c}, !- Handle
  Work Efficiency Schedule,               !- Name
  {95cbc9ce-8ef3-4876-8e92-e89cfdf0c7f0}, !- Schedule Type Limits Name
  {75dd304c-f6e7-4931-aecd-4712d9fd4396}; !- Default Day Schedule Name

OS:Schedule:Day,
  {75dd304c-f6e7-4931-aecd-4712d9fd4396}, !- Handle
  Work Efficiency Schedule Default,       !- Name
  {95cbc9ce-8ef3-4876-8e92-e89cfdf0c7f0}, !- Schedule Type Limits Name
  ,                                       !- Interpolate to Timestep
  24,                                     !- Hour 1
  0,                                      !- Minute 1
  0;                                      !- Value Until Time 1

OS:ScheduleTypeLimits,
  {95cbc9ce-8ef3-4876-8e92-e89cfdf0c7f0}, !- Handle
  Fractional,                             !- Name
  0,                                      !- Lower Limit Value
  1,                                      !- Upper Limit Value
  Continuous;                             !- Numeric Type

OS:Lights:Definition,
  {7392d21c-5f40-46ed-a80d-e98f9196f04b}, !- Handle
  MidriseApartment Office Lights Definition, !- Name
  Watts/Area,                             !- Design Level Calculation Method
  ,                                       !- Lighting Level {W}
  11.8403014583807,                       !- Watts per Space Floor Area {W/m2}
  ,                                       !- Watts per Person {W/person}
  0.6,                                    !- Fraction Radiant
  0.2;                                    !- Fraction Visible

OS:AdditionalProperties,
  {dd84d54f-ee10-4ab5-8376-0f4a15894063}, !- Handle
  {7392d21c-5f40-46ed-a80d-e98f9196f04b}, !- Object Name
  lpd_fraction_linear_fluorescent,        !- Feature Name 1
  Double,                                 !- Feature Data Type 1
  1;                                      !- Feature Value 1

OS:ElectricEquipment:Definition,
  {84c21bbe-aa0c-4ad9-a2ff-62bee0ccf88d}, !- Handle
  MidriseApartment Office Elec Equip Definition, !- Name
  Watts/Area,                             !- Design Level Calculation Method