
OS:Version,
  {670a3ce9-d5ed-4f26-992d-97e9cd240fd4}, !- Handle
  2.8.0;                                  !- Version Identifier

OS:Facility,
  {69c21f52-f826-4989-a161-c63934ca8554}; !- Handle

OS:Site,
  {a90e3077-cd79-4253-a212-bac742533e69}, !- Handle
  Buffalo Niagara Intl Ap_NY_USA,         !- Name
  42.813153418927,                        !- Latitude {deg}
  -78.8478679776468,                      !- Longitude {deg}
  -5,                                     !- Time Zone {hr}
  215,                                    !- Elevation {m}
  City;                                   !- Terrain

OS:SimulationControl,
  {8ed8d0fe-4434-4f38-83c6-5f8e6fe0dbc9}, !- Handle
  ,                                       !- Do Zone Sizing Calculation
  ,                                       !- Do System Sizing Calculation
  ,                                       !- Do Plant Sizing Calculation
  Yes,                                    !- Run Simulation for Sizing Periods
  No;                                     !- Run Simulation for Weather File Run Periods

OS:Sizing:Parameters,
  {ccc97a4e-42ff-4c55-904c-ca5260d1cc6d}, !- Handle
  1.25,                                   !- Heating Sizing Factor
  1.15;                                   !- Cooling Sizing Factor

OS:Timestep,
  {e1b377e9-9f70-4eb1-8c01-e3ab962f285b}, !- Handle
  1;                                      !- Number of Timesteps per Hour

OS:ShadowCalculation,
  {eee33d98-75fb-43af-9c68-4c1f67b94d50}, !- Handle
  20,                                     !- Calculation Frequency
  15000;                                  !- Maximum Figures in Shadow Overlap Calculations

OS:HeatBalanceAlgorithm,
  {937245a3-e152-4fa1-a5ee-53be76d5b105}, !- Handle
  ConductionTransferFunction,             !- Algorithm
  200;                                    !- Surface Temperature Upper Limit {C}

OS:RunPeriod,
  {c2b60c51-0cc0-4353-b7b3-d746f9b212e4}, !- Handle
  Run Period 1,                           !- Name
  1,                                      !- Begin Month
  1,                                      !- Begin Day of Month
  12,                                     !- End Month
  31,                                     !- End Day of Month
  ,                                       !- Use Weather File Holidays and Special Days
  ,                                       !- Use Weather File Daylight Saving Period
  ,                                       !- Apply Weekend Holiday Rule
  ,                                       !- Use Weather File Rain Indicators
  ,                                       !- Use Weather File Snow Indicators
  ;                                       !- Number of Times Runperiod to be Repeated

OS:LifeCycleCost:Parameters,
  {60b68480-66fa-4925-a102-3dd51384cb96}, !- Handle
  ,                                       !- Analysis Type
  ,                                       !- Discounting Convention
  ,                                       !- Inflation Approach
  ,                                       !- Real Discount Rate
  ,                                       !- Nominal Discount Rate
  ,                                       !- Inflation
  ,                                       !- Base Date Month
  ,                                       !- Base Date Year
  ,                                       !- Service Date Month
  ,                                       !- Service Date Year
  ;                                       !- Length of Study Period in Years

OS:YearDescription,
  {150d4b25-2738-42c4-b6c3-7fa0ce0536d9}, !- Handle
  2018,                                   !- Calendar Year
  ,                                       !- Day of Week for Start Day
  ;                                       !- Is Leap Year

OS:WeatherFile,
  {89a48232-e010-44c8-a0e4-f97257052765}, !- Handle
  Buffalo Niagara Intl Ap,                !- City
  NY,                                     !- State Province Region
  USA,                                    !- Country
  TMY3,                                   !- Data Source
  725280,                                 !- WMO Number
  42.93,                                  !- Latitude {deg}
  -78.73,                                 !- Longitude {deg}
  -5,                                     !- Time Zone {hr}
  215,                                    !- Elevation {m}
  file:////Users/tkwasnik/github/urbanopt-example-geojson-reopt-project/weather/USA_NY_Buffalo-Greater.Buffalo.Intl.AP.725280_TMY3.epw, !- Url
  ;                                       !- Checksum

OS:Site:WaterMainsTemperature,
  {0b2d10f6-be3a-4f58-b789-41d1a750576d}, !- Handle
  Correlation,                            !- Calculation Method
  ,                                       !- Temperature Schedule Name
  8.96666666666667,                       !- Annual Average Outdoor Air Temperature {C}
  26.2;                                   !- Maximum Difference In Monthly Average Outdoor Air Temperatures {deltaC}

OS:SizingPeriod:DesignDay,
  {b5d055b8-089d-48d4-9d15-54347b225698}, !- Handle
  Buffalo Niagara Intl Ap Ann Clg .4% Condns WB=>MDB, !- Name
  27.8,                                   !- Maximum Dry-Bulb Temperature {C}
  9.3,                                    !- Daily Dry-Bulb Temperature Range {deltaC}
  23.8,                                   !- Humidity Indicating Conditions at Maximum Dry-Bulb
  98769,                                  !- Barometric Pressure {Pa}
  5.7,                                    !- Wind Speed {m/s}
  240,                                    !- Wind Direction {deg}
  0,                                      !- Sky Clearness
  0,                                      !- Rain Indicator
  0,                                      !- Snow Indicator
  21,                                     !- Day of Month
  7,                                      !- Month
  SummerDesignDay,                        !- Day Type
  0,                                      !- Daylight Saving Time Indicator
  Wetbulb,                                !- Humidity Indicating Type
  ,                                       !- Humidity Indicating Day Schedule Name
  DefaultMultipliers,                     !- Dry-Bulb Temperature Range Modifier Type
  ,                                       !- Dry-Bulb Temperature Range Modifier Schedule Name
  ASHRAETau,                              !- Solar Model Indicator
  ,                                       !- Beam Solar Day Schedule Name
  ,                                       !- Diffuse Solar Day Schedule Name
  0.462,                                  !- ASHRAE Taub {dimensionless}
  2.001;                                  !- ASHRAE Taud {dimensionless}

OS:SizingPeriod:DesignDay,
  {caf86623-bc19-479f-a005-bdae564cae44}, !- Handle
  Buffalo Niagara Intl Ap Ann Clg .4% Condns DB=>MWB, !- Name
  30.3,                                   !- Maximum Dry-Bulb Temperature {C}
  9.3,                                    !- Daily Dry-Bulb Temperature Range {deltaC}
  21.8,                                   !- Humidity Indicating Conditions at Maximum Dry-Bulb
  98769,                                  !- Barometric Pressure {Pa}
  5.7,                                    !- Wind Speed {m/s}
  240,                                    !- Wind Direction {deg}
  0,                                      !- Sky Clearness
  0,                                      !- Rain Indicator
  0,                                      !- Snow Indicator
  21,                                     !- Day of Month
  7,                                      !- Month
  SummerDesignDay,                        !- Day Type
  0,                                      !- Daylight Saving Time Indicator
  Wetbulb,                                !- Humidity Indicating Type
  ,                                       !- Humidity Indicating Day Schedule Name
  DefaultMultipliers,                     !- Dry-Bulb Temperature Range Modifier Type
  ,                                       !- Dry-Bulb Temperature Range Modifier Schedule Name
  ASHRAETau,                              !- Solar Model Indicator
  ,                                       !- Beam Solar Day Schedule Name
  ,                                       !- Diffuse Solar Day Schedule Name
  0.462,                                  !- ASHRAE Taub {dimensionless}
  2.001;                                  !- ASHRAE Taud {dimensionless}

OS:SizingPeriod:DesignDay,
  {d6d8a4ea-21d2-4e35-bafd-3a5e5441b591}, !- Handle
  Buffalo Niagara Intl Ap Ann Htg 99.6% Condns DB, !- Name
  -16.3,                                  !- Maximum Dry-Bulb Temperature {C}
  0,                                      !- Daily Dry-Bulb Temperature Range {deltaC}
  -16.3,                                  !- Humidity Indicating Conditions at Maximum Dry-Bulb
  98769,                                  !- Barometric Pressure {Pa}
  5.1,                                    !- Wind Speed {m/s}
  270,                                    !- Wind Direction {deg}
  0,                                      !- Sky Clearness
  0,                                      !- Rain Indicator
  0,                                      !- Snow Indicator
  21,                                     !- Day of Month
  1,                                      !- Month
  WinterDesignDay,                        !- Day Type
  0,                                      !- Daylight Saving Time Indicator
  Wetbulb,                                !- Humidity Indicating Type
  ,                                       !- Humidity Indicating Day Schedule Name
  DefaultMultipliers,                     !- Dry-Bulb Temperature Range Modifier Type
  ,                                       !- Dry-Bulb Temperature Range Modifier Schedule Name
  ASHRAEClearSky;                         !- Solar Model Indicator

OS:ClimateZones,
  {1534435d-91b8-441f-9cf4-6867dc4b8eac}, !- Handle
  ,                                       !- Active Institution
  ,                                       !- Active Year
  ASHRAE,                                 !- Climate Zone Institution Name 1
  ANSI/ASHRAE Standard 169,               !- Climate Zone Document Name 1
  2006,                                   !- Climate Zone Document Year 1
  6A;                                     !- Climate Zone Value 1

OS:Node,
  {17c44dd0-7ca4-443c-b065-951aadfe93a2}, !- Handle
  Node 1,                                 !- Name
  {38adda4e-a38e-4586-9ec1-736f1082a0fe}, !- Inlet Port
  ;                                       !- Outlet Port

OS:Connection,
  {38adda4e-a38e-4586-9ec1-736f1082a0fe}, !- Handle
  {ca496c30-21c5-40cd-adf0-087d43f9660f}, !- Name
  ,                                       !- Source Object
  11,                                     !- Outlet Port
  {17c44dd0-7ca4-443c-b065-951aadfe93a2}, !- Target Object
  2;                                      !- Inlet Port

OS:PortList,
  {8c693d38-3fff-4e1a-93dc-0092c6445a67}, !- Handle
  {3793a257-668d-4e33-967e-3c07d30f2406}, !- Name
  ;                                       !- HVAC Component

OS:PortList,
  {bfb43cdd-4844-482b-b26f-ba9d0df921c7}, !- Handle
  {8f099efe-b063-4ccc-af08-18b1a9a58c13}, !- Name
  ,                                       !- HVAC Component
  {d36523e9-f175-4173-a20f-107556d72a48}; !- Port 1

OS:PortList,
  {6112088c-5b48-4955-8c45-16ebe5dd4c11}, !- Handle
  {052c823e-1a81-4f00-8d5c-ba5395187f0e}, !- Name
  ;                                       !- HVAC Component

OS:Node,
  {62fc2045-9b50-4b7a-9f07-7508e3bce450}, !- Handle
  Node 2,                                 !- Name
  {0e1a99ba-eeab-4d59-b2fb-3022e593ec0c}, !- Inlet Port
  ;                                       !- Outlet Port

OS:Connection,
  {0e1a99ba-eeab-4d59-b2fb-3022e593ec0c}, !- Handle
  {8e8c56e2-99a0-4932-bc5a-2fe06ea1b36e}, !- Name
  ,                                       !- Source Object
  11,                                     !- Outlet Port
  {62fc2045-9b50-4b7a-9f07-7508e3bce450}, !- Target Object
  2;                                      !- Inlet Port

OS:PortList,
  {2896e062-eeda-4b29-aa5f-e8390e3eca5d}, !- Handle
  {7af41962-ef30-4d59-bcd6-5029c4946f4b}, !- Name
  ;                                       !- HVAC Component

OS:PortList,
  {64935301-6e74-4a30-9f85-f0a6f21cce38}, !- Handle
  {b0dcea70-1522-45d1-b866-d229f62b2dcd}, !- Name
  ,                                       !- HVAC Component
  {38355b8b-65be-4830-93c8-a036f03db2f9}; !- Port 1

OS:PortList,
  {4f0c0e70-5831-4ebe-89c0-7dcfc8399d51}, !- Handle
  {bd06e5c4-1011-458b-8128-71c0ed42ead3}, !- Name
  ;                                       !- HVAC Component

OS:Node,
  {392febbd-106f-4aca-a07c-6c93fbd6d03a}, !- Handle
  Node 3,                                 !- Name
  {9a9fc051-8150-49c2-9f6b-b98eb48eb1fc}, !- Inlet Port
  ;                                       !- Outlet Port

OS:Connection,
  {9a9fc051-8150-49c2-9f6b-b98eb48eb1fc}, !- Handle
  {12ddd39e-1c32-416b-a358-ed49ea0f591d}, !- Name
  ,                                       !- Source Object
  11,                                     !- Outlet Port
  {392febbd-106f-4aca-a07c-6c93fbd6d03a}, !- Target Object
  2;                                      !- Inlet Port

OS:PortList,
  {71bc557e-f4ef-4665-a3b3-b4ec1c8d20f4}, !- Handle
  {fce7b3a7-9b0b-4572-80b6-66d65554c38b}, !- Name
  ;                                       !- HVAC Component

OS:PortList,
  {657be0ff-f420-417d-8044-f2e02059427a}, !- Handle
  {25bef495-60d9-4098-bad2-a5ef2c1f46d4}, !- Name
  ,                                       !- HVAC Component
  {2e8009a4-66ad-41af-ac23-56a4f98d9b60}; !- Port 1

OS:PortList,
  {1e19ea5a-e1a4-4dcc-af84-32c2cb03774e}, !- Handle
  {f9c3ada7-67f1-4826-be43-51da8f19bd20}, !- Name
  ;                                       !- HVAC Component

OS:Node,
  {c8010e4e-a6de-4a6b-9914-04df378ea6ca}, !- Handle
  Node 4,                                 !- Name
  {3a3a38da-d733-4dcd-a496-d202dd1fee85}, !- Inlet Port
  ;                                       !- Outlet Port

OS:Connection,
  {3a3a38da-d733-4dcd-a496-d202dd1fee85}, !- Handle
  {0673a6a1-10d9-4138-bb61-d1f7749353e5}, !- Name
  ,                                       !- Source Object
  11,                                     !- Outlet Port
  {c8010e4e-a6de-4a6b-9914-04df378ea6ca}, !- Target Object
  2;                                      !- Inlet Port

OS:PortList,
  {778b1933-3b23-4308-bdfe-2ca9d93bbb71}, !- Handle
  {70dba308-1137-431e-ac4f-e7ae732bedf7}, !- Name
  ;                                       !- HVAC Component

OS:PortList,
  {37176c1c-f9ff-4fa4-a939-7f085796dfd7}, !- Handle
  {30ecfa17-83c6-4df4-9a3e-480b43da5a19}, !- Name
  ,                                       !- HVAC Component
  {9e2dce1c-2af1-467d-ac76-a4f4b9c195e9}; !- Port 1

OS:PortList,
  {9c7e47c2-5d43-4d05-a8ba-311b15c30cb7}, !- Handle
  {9e2c0d54-e8d8-4d7d-a15f-28d601460169}, !- Name
  ;                                       !- HVAC Component

OS:Node,
  {5885ae61-cc73-4e27-a9be-6e0754f17d0f}, !- Handle
  Node 5,                                 !- Name
  {00e83204-6fa0-4fc4-8ab6-2794f0348150}, !- Inlet Port
  ;                                       !- Outlet Port

OS:Connection,
  {00e83204-6fa0-4fc4-8ab6-2794f0348150}, !- Handle
  {33b1771e-2f8b-4c0d-a424-e694d74d07fc}, !- Name
  ,                                       !- Source Object
  11,                                     !- Outlet Port
  {5885ae61-cc73-4e27-a9be-6e0754f17d0f}, !- Target Object
  2;                                      !- Inlet Port

OS:PortList,
  {f7e2f382-3949-4499-86e2-1eb06935c54b}, !- Handle
  {4f3c8faf-7ab2-4fc6-9206-93bac29f7ea0}, !- Name
  ;                                       !- HVAC Component

OS:PortList,
  {09ce95a2-d81d-4db0-8f08-6b7616a8314a}, !- Handle
  {9cc0b29b-572b-46be-aea5-3930e37cba94}, !- Name
  ,                                       !- HVAC Component
  {59c24997-5dd9-4680-9c3b-869fc12f7cdb}; !- Port 1

OS:PortList,
  {01f2e8d6-df67-42e6-8305-0e38b189d674}, !- Handle
  {b1328625-a58f-473e-b6c5-3de5c6c4f923}, !- Name
  ;                                       !- HVAC Component

OS:Node,
  {42f33617-0cb7-4ce2-8ec7-672c27387c59}, !- Handle
  Node 6,                                 !- Name
  {cfc0dc1b-7b05-4966-a6b5-21e03e5412ce}, !- Inlet Port
  ;                                       !- Outlet Port

OS:Connection,
  {cfc0dc1b-7b05-4966-a6b5-21e03e5412ce}, !- Handle
  {bfa071a7-8a5b-4e64-a165-d04216f52709}, !- Name
  ,                                       !- Source Object
  11,                                     !- Outlet Port
  {42f33617-0cb7-4ce2-8ec7-672c27387c59}, !- Target Object
  2;                                      !- Inlet Port

OS:PortList,
  {efdcfb8d-5c12-4158-ae5f-994438ba81e9}, !- Handle
  {423ceb87-5d73-4a4f-a1b4-77ca8c6193b1}, !- Name
  ;                                       !- HVAC Component

OS:PortList,
  {31efd7c6-8daa-4529-a0f7-1278959f606e}, !- Handle
  {662ccda1-0faf-4a45-ac03-d7ec26d9664f}, !- Name
  ,                                       !- HVAC Component
  {b1a37988-33f8-4fa5-87f7-595a9c90b1be}; !- Port 1

OS:PortList,
  {f38848a9-e477-4b50-afe2-43b7e9392400}, !- Handle
  {d09a18d4-6c37-462f-8f50-07dcabbe4302}, !- Name
  ;                                       !- HVAC Component

OS:Node,
  {bb86884d-b320-4818-aa10-60423ad60da0}, !- Handle
  Node 7,                                 !- Name
  {6f7eaa0b-db1e-4e95-b82d-543955ac3450}, !- Inlet Port
  ;                                       !- Outlet Port

OS:Connection,
  {6f7eaa0b-db1e-4e95-b82d-543955ac3450}, !- Handle
  {cd16cd18-879d-4c34-b75c-ec3a85678b73}, !- Name
  ,                                       !- Source Object
  11,                                     !- Outlet Port
  {bb86884d-b320-4818-aa10-60423ad60da0}, !- Target Object
  2;                                      !- Inlet Port

OS:PortList,
  {86edc99a-d5c4-4eb0-99db-c60360f0178e}, !- Handle
  {8d6004c1-e432-4ff3-bc16-9b9e3cfc6512}, !- Name
  ;                                       !- HVAC Component

OS:PortList,
  {31c21261-0ca0-426d-98bf-ad990e6f7a50}, !- Handle
  {d4b7dc42-d515-4ce6-9ba5-db62df8e970c}, !- Name
  ,                                       !- HVAC Component
  {00354ec4-00b9-48fc-9f2b-d41edac5c789}; !- Port 1

OS:PortList,
  {60226c25-d17a-4ce9-80f7-dcce35669681}, !- Handle
  {2f321be8-47d4-459e-b446-8467e817b936}, !- Name
  ;                                       !- HVAC Component

OS:Node,
  {8afa51fe-1587-4e84-a569-adef07aeddc4}, !- Handle
  Node 8,                                 !- Name
  {bbc6cbb1-b4b5-4da9-ad2b-0d8a92c97485}, !- Inlet Port
  ;                                       !- Outlet Port

OS:Connection,
  {bbc6cbb1-b4b5-4da9-ad2b-0d8a92c97485}, !- Handle
  {fc17c11a-4734-47bf-84da-942f29a4bc13}, !- Name
  ,                                       !- Source Object
  11,                                     !- Outlet Port
  {8afa51fe-1587-4e84-a569-adef07aeddc4}, !- Target Object
  2;                                      !- Inlet Port

OS:PortList,
  {e267940f-2b4b-4e20-a66c-a5867c7cc8eb}, !- Handle
  {4f41ef98-7d4e-4865-80a4-909eaaf88bb7}, !- Name
  ;                                       !- HVAC Component

OS:PortList,
  {b46040b5-4830-4467-b7c0-4b0f882cc491}, !- Handle
  {7423e847-a377-457e-bde3-e768f9cd970e}, !- Name
  ,                                       !- HVAC Component
  {d1887834-7b69-4eac-bfea-81438ef6d745}; !- Port 1

OS:PortList,
  {b1f1fcb0-1bde-4f9e-b97d-ba896e1c7b34}, !- Handle
  {2ef5b971-e784-44b8-9d98-3bf2ccb29350}, !- Name
  ;                                       !- HVAC Component

OS:Node,
  {9f5a0a65-97d3-48e2-8660-3b00bddc9a78}, !- Handle
  Node 9,                                 !- Name
  {97847bb9-1fc9-4a59-bd04-1b8e3fe79352}, !- Inlet Port
  ;                                       !- Outlet Port

OS:Connection,
  {97847bb9-1fc9-4a59-bd04-1b8e3fe79352}, !- Handle
  {f17dd627-5bf8-4ed0-b200-ef1f2991be5e}, !- Name
  ,                                       !- Source Object
  11,                                     !- Outlet Port
  {9f5a0a65-97d3-48e2-8660-3b00bddc9a78}, !- Target Object
  2;                                      !- Inlet Port

OS:PortList,
  {439c1db9-3b44-4ee3-bdc6-c380afad79c6}, !- Handle
  {baec32e7-f3d8-4871-88f1-037e8537d2fb}, !- Name
  ;                                       !- HVAC Component

OS:PortList,
  {8f112293-b129-47f9-a1ce-45d545cf3312}, !- Handle
  {c3d007f0-8d4a-42a8-a492-68d4b5251065}, !- Name
  ,                                       !- HVAC Component
  {95eb0cff-9bac-49e5-979d-3cdb1059a0ff}; !- Port 1

OS:PortList,
  {2374185a-093e-4b34-9ade-edcbb178309b}, !- Handle
  {e36f6564-9f6f-4a33-ac0a-1e74abf8d2ca}, !- Name
  ;                                       !- HVAC Component

OS:Node,
  {b34480ea-5bcb-42ad-95cf-8f3818686cb4}, !- Handle
  Node 10,                                !- Name
  {4b215bb3-3b59-4f6f-922f-369bcad07dc3}, !- Inlet Port
  ;                                       !- Outlet Port

OS:Connection,
  {4b215bb3-3b59-4f6f-922f-369bcad07dc3}, !- Handle
  {03c5104f-9868-43a1-b65d-c7623bf35bb3}, !- Name
  ,                                       !- Source Object
  11,                                     !- Outlet Port
  {b34480ea-5bcb-42ad-95cf-8f3818686cb4}, !- Target Object
  2;                                      !- Inlet Port

OS:PortList,
  {6428af44-425e-4edf-a4dc-9d1f58ce3f68}, !- Handle
  {537d89e3-7a2d-445f-b319-468a9d0eeb00}, !- Name
  ;                                       !- HVAC Component

OS:PortList,
  {1bcd35f2-e5e6-45d4-b3fa-70fd8c84a3d8}, !- Handle
  {3f4b4c6d-5980-40bb-8e89-1193e0aba83c}, !- Name
  ;                                       !- HVAC Component

OS:PortList,
  {2c19e997-d27b-4e42-8efc-68b59d249ed5}, !- Handle
  {bb2de2c8-778c-4d14-be82-9f39edd8c76b}, !- Name
  ;                                       !- HVAC Component

OS:Node,
  {88e0d86f-3331-4316-bbac-ee9ed11ba5f9}, !- Handle
  Node 11,                                !- Name
  {a46e6ca3-0efe-4ec1-8188-648a30710ca2}, !- Inlet Port
  ;                                       !- Outlet Port

OS:Connection,
  {a46e6ca3-0efe-4ec1-8188-648a30710ca2}, !- Handle
  {8e3b41cb-9261-4eb7-a065-8dd649b0e07f}, !- Name
  ,                                       !- Source Object
  11,                                     !- Outlet Port
  {88e0d86f-3331-4316-bbac-ee9ed11ba5f9}, !- Target Object
  2;                                      !- Inlet Port

OS:PortList,
  {a3d3b1c8-125e-4ed5-a419-a7e32e76fe16}, !- Handle
  {6121a76e-494f-474e-a22c-7a5a38eda30a}, !- Name
  ;                                       !- HVAC Component

OS:PortList,
  {c64ffc3d-5e4c-4f6c-adbd-ff4f2223334d}, !- Handle
  {eaad5333-c14d-465b-8b2c-29978ba58599}, !- Name
  ;                                       !- HVAC Component

OS:PortList,
  {bc877c5a-000b-4820-bce0-d8b168c8624c}, !- Handle
  {315ed8a6-673c-4740-9837-1926d1ea7edd}, !- Name
  ;                                       !- HVAC Component

OS:Node,
  {4f89d174-e8ca-4e57-8485-1db1a74b091f}, !- Handle
  Node 12,                                !- Name
  {249b0caf-41e6-4e97-aa96-933faf11df95}, !- Inlet Port
  ;                                       !- Outlet Port

OS:Connection,
  {249b0caf-41e6-4e97-aa96-933faf11df95}, !- Handle
  {69f5a342-8848-4d98-a489-5e222cb55619}, !- Name
  ,                                       !- Source Object
  11,                                     !- Outlet Port
  {4f89d174-e8ca-4e57-8485-1db1a74b091f}, !- Target Object
  2;                                      !- Inlet Port

OS:PortList,
  {adf2466f-c065-405d-9b0b-c748c3fe6276}, !- Handle
  {066f4a78-4d3a-48d1-917f-b99106ab5980}, !- Name
  ;                                       !- HVAC Component

OS:PortList,
  {43469617-655a-479a-b332-f7ab53727020}, !- Handle
  {3a7e0c06-6593-4b8c-8d93-6dc5efb1499a}, !- Name
  ;                                       !- HVAC Component

OS:PortList,
  {48aeceb5-47c2-41ee-8e39-d1027780aff0}, !- Handle
  {eae58987-88bf-42b9-949d-c1d81ea076e0}, !- Name
  ;                                       !- HVAC Component

OS:Node,
  {6a5ce3f9-de8f-408a-86cf-9dfb3049802c}, !- Handle
  Node 13,                                !- Name
  {c1704322-422a-46b6-b8e9-6739150ae733}, !- Inlet Port
  ;                                       !- Outlet Port

OS:Connection,
  {c1704322-422a-46b6-b8e9-6739150ae733}, !- Handle
  {4b3d7960-65a3-48c2-9ccc-3f1c782ee786}, !- Name
  ,                                       !- Source Object
  11,                                     !- Outlet Port
  {6a5ce3f9-de8f-408a-86cf-9dfb3049802c}, !- Target Object
  2;                                      !- Inlet Port

OS:PortList,
  {392e0122-ab23-411c-afad-ff4385abdb04}, !- Handle
  {8356195d-99af-44a3-9987-a6f4980c2fff}, !- Name
  ;                                       !- HVAC Component

OS:PortList,
  {481a921d-775a-4a3c-8a66-56ede8623b49}, !- Handle
  {10efb9f5-6519-4531-8d07-6cfda90dab19}, !- Name
  ;                                       !- HVAC Component

OS:PortList,
  {49d06005-d53a-472b-85a6-f987162cc43c}, !- Handle
  {cbdbb58c-54cd-4468-bc21-b1591e4e40c4}, !- Name
  ;                                       !- HVAC Component

OS:Node,
  {5d443e95-584b-4b1d-b149-68696bbfad12}, !- Handle
  Node 14,                                !- Name
  {98b219bf-ff32-44df-b600-bf0b171b6cfa}, !- Inlet Port
  ;                                       !- Outlet Port

OS:Connection,
  {98b219bf-ff32-44df-b600-bf0b171b6cfa}, !- Handle
  {bcaa8beb-413d-4540-a8ab-bfb19eeefeae}, !- Name
  ,                                       !- Source Object
  11,                                     !- Outlet Port
  {5d443e95-584b-4b1d-b149-68696bbfad12}, !- Target Object
  2;                                      !- Inlet Port

OS:PortList,
  {ff07d559-34de-4506-a4ae-c8f673bc62b1}, !- Handle
  {7f765023-49ec-4508-833b-172e42952c7f}, !- Name
  ;                                       !- HVAC Component

OS:PortList,
  {280b1110-8610-4c5b-af72-8de1f4f9b468}, !- Handle
  {b449685f-add3-4740-b700-b4586e1c23b2}, !- Name
  ;                                       !- HVAC Component

OS:PortList,
  {de0794f4-614e-4fb1-a9f6-421ef367beca}, !- Handle
  {a836e466-34fa-47b4-bbe9-e56e3e3d3a94}, !- Name
  ;                                       !- HVAC Component

OS:Node,
  {87134eef-fd5c-49a5-a820-98d695b1e1d8}, !- Handle
  Node 15,                                !- Name
  {a73b0670-d479-44d1-9738-63e5510a2a8c}, !- Inlet Port
  ;                                       !- Outlet Port

OS:Connection,
  {a73b0670-d479-44d1-9738-63e5510a2a8c}, !- Handle
  {b1f57880-4434-4ee8-b8a1-f845d4080275}, !- Name
  ,                                       !- Source Object
  11,                                     !- Outlet Port
  {87134eef-fd5c-49a5-a820-98d695b1e1d8}, !- Target Object
  2;                                      !- Inlet Port

OS:PortList,
  {79ed1b4d-d43e-4c9b-8a2b-bdf0c7c8d843}, !- Handle
  {da766b56-3795-4c47-90b2-17ba63e8fe01}, !- Name
  ;                                       !- HVAC Component

OS:PortList,
  {e155a189-00f3-441e-aceb-695eb6a826d2}, !- Handle
  {0a7100be-829c-4b19-b6ba-e561f65e529e}, !- Name
  ;                                       !- HVAC Component

OS:PortList,
  {9046972a-218c-4f3b-9580-fa231cfaaf78}, !- Handle
  {14f7b5dd-c0a0-4a72-a488-25ed2610a727}, !- Name
  ;                                       !- HVAC Component

OS:Node,
  {d18c1778-9d31-4526-95eb-50c323dc2c04}, !- Handle
  Node 16,                                !- Name
  {c734071e-cae6-40c8-8235-ba8d55fd3703}, !- Inlet Port
  ;                                       !- Outlet Port

OS:Connection,
  {c734071e-cae6-40c8-8235-ba8d55fd3703}, !- Handle
  {e5e81015-466c-400d-9f84-62bc0ffc6490}, !- Name
  ,                                       !- Source Object
  11,                                     !- Outlet Port
  {d18c1778-9d31-4526-95eb-50c323dc2c04}, !- Target Object
  2;                                      !- Inlet Port

OS:PortList,
  {989f8ea3-736b-42c0-aa3a-7f716d5f0b40}, !- Handle
  {f2a6d94d-400f-45f7-8127-89bddc9ce151}, !- Name
  ;                                       !- HVAC Component

OS:PortList,
  {a6dd4471-1f66-4260-829e-45863688f9cb}, !- Handle
  {c69befd1-58fe-4fff-bcbe-edd2e2b10cff}, !- Name
  ;                                       !- HVAC Component

OS:PortList,
  {01a0dbc2-71ae-4d30-82ae-d6640ae3e3d1}, !- Handle
  {ec75d589-66cb-4958-b40f-7a13579b35a1}, !- Name
  ;                                       !- HVAC Component

OS:Node,
  {b4d32665-4b09-402d-857e-0f7df0c2d5f9}, !- Handle
  Node 17,                                !- Name
  {74d9dfd2-2bad-4d9b-85eb-0b85fefbcf60}, !- Inlet Port
  ;                                       !- Outlet Port

OS:Connection,
  {74d9dfd2-2bad-4d9b-85eb-0b85fefbcf60}, !- Handle
  {6eee4440-3d55-4bc0-8252-e418e7b822b1}, !- Name
  ,                                       !- Source Object
  11,                                     !- Outlet Port
  {b4d32665-4b09-402d-857e-0f7df0c2d5f9}, !- Target Object
  2;                                      !- Inlet Port

OS:PortList,
  {fd8abd20-3c6b-41d3-9686-4b47b9eb2b21}, !- Handle
  {ca8c324d-be1d-47f9-9a75-480dc9085209}, !- Name
  ;                                       !- HVAC Component

OS:PortList,
  {d83f30b3-0a82-4292-8dd9-7c0c81562048}, !- Handle
  {914ac42d-a723-488e-aa8e-a360f8ea9c30}, !- Name
  ;                                       !- HVAC Component

OS:PortList,
  {d6dea1a6-6254-4517-b6cf-b5581d68bef2}, !- Handle
  {4443c262-880a-4e3e-9a23-886a69ef1bed}, !- Name
  ;                                       !- HVAC Component

OS:Node,
  {56d7f97c-4ec3-40aa-a28a-8f29a0fd556f}, !- Handle
  Node 18,                                !- Name
  {8d7e3e28-e3e1-4297-8652-197769afadeb}, !- Inlet Port
  ;                                       !- Outlet Port

OS:Connection,
  {8d7e3e28-e3e1-4297-8652-197769afadeb}, !- Handle
  {0dfbd6b6-e6f8-4d28-955f-10770ee2a5af}, !- Name
  ,                                       !- Source Object
  11,                                     !- Outlet Port