
OS:Version,
  {e74db46c-c887-476f-bc66-c913759ac001}, !- Handle
  2.8.0;                                  !- Version Identifier

OS:Facility,
  {78f50cf7-f06b-4dd5-9484-6becd3ada63e}; !- Handle

OS:Site,
  {2816df0e-b92d-42fc-be61-e50ca0ba57c7}, !- Handle
  Buffalo Niagara Intl Ap_NY_USA,         !- Name
  42.8132927350264,                       !- Latitude {deg}
  -78.8501565714965,                      !- Longitude {deg}
  -5,                                     !- Time Zone {hr}
  215,                                    !- Elevation {m}
  City;                                   !- Terrain

OS:SimulationControl,
  {7473a396-fa69-4c9a-8a45-a2dc21ec2992}, !- Handle
  ,                                       !- Do Zone Sizing Calculation
  ,                                       !- Do System Sizing Calculation
  ,                                       !- Do Plant Sizing Calculation
  Yes,                                    !- Run Simulation for Sizing Periods
  No;                                     !- Run Simulation for Weather File Run Periods

OS:Sizing:Parameters,
  {5643a905-ca54-4f9c-bb30-ed4390bdbce8}, !- Handle
  1.25,                                   !- Heating Sizing Factor
  1.15;                                   !- Cooling Sizing Factor

OS:Timestep,
  {a3d41859-d6bb-42da-92ec-b0020c401dec}, !- Handle
  1;                                      !- Number of Timesteps per Hour

OS:ShadowCalculation,
  {9537a189-ca21-4758-beda-b34b2b55b397}, !- Handle
  20,                                     !- Calculation Frequency
  15000;                                  !- Maximum Figures in Shadow Overlap Calculations

OS:HeatBalanceAlgorithm,
  {50ee829e-0848-4ee8-a6d8-5b3fd88d70b0}, !- Handle
  ConductionTransferFunction,             !- Algorithm
  200;                                    !- Surface Temperature Upper Limit {C}

OS:RunPeriod,
  {32c65b69-542d-4cba-99ba-a4ed6d2a9c34}, !- Handle
  Run Period 1,                           !- Name
  1,                                      !- Begin Month
  1,                                      !- Begin Day of Month
  12,                                     !- End Month
  31,                                     !- End Day of Month
  ,                                       !- Use Weather File Holidays and Special Days
  ,                                       !- Use Weather File Daylight Saving Period
  ,                                       !- Apply Weekend Holiday Rule
  ,                                       !- Use Weather File Rain Indicators
  ,                                       !- Use Weather File Snow Indicators
  ;                                       !- Number of Times Runperiod to be Repeated

OS:LifeCycleCost:Parameters,
  {9a77c45f-6433-4bd7-8a5f-5bf2d1afd90d}, !- Handle
  ,                                       !- Analysis Type
  ,                                       !- Discounting Convention
  ,                                       !- Inflation Approach
  ,                                       !- Real Discount Rate
  ,                                       !- Nominal Discount Rate
  ,                                       !- Inflation
  ,                                       !- Base Date Month
  ,                                       !- Base Date Year
  ,                                       !- Service Date Month
  ,                                       !- Service Date Year
  ;                                       !- Length of Study Period in Years

OS:YearDescription,
  {f0ec6783-8fa4-49f1-8ae0-c67626ffd8d7}, !- Handle
  2018,                                   !- Calendar Year
  ,                                       !- Day of Week for Start Day
  ;                                       !- Is Leap Year

OS:WeatherFile,
  {dd292f8c-dfaa-4014-98fb-77c0393cd5b2}, !- Handle
  Buffalo Niagara Intl Ap,                !- City
  NY,                                     !- State Province Region
  USA,                                    !- Country
  TMY3,                                   !- Data Source
  725280,                                 !- WMO Number
  42.93,                                  !- Latitude {deg}
  -78.73,                                 !- Longitude {deg}
  -5,                                     !- Time Zone {hr}
  215,                                    !- Elevation {m}
  file:///Users/tkwasnik/github/urbanopt-example-geojson-reopt-project/run/baseline_scenario/3/006_create_typical_building_from_model/SR1/in.epw, !- Url
  6B50E0FF;                               !- Checksum

OS:Site:WaterMainsTemperature,
  {e7bf2e79-ec76-4112-8833-ec668f2cc9d3}, !- Handle
  Correlation,                            !- Calculation Method
  ,                                       !- Temperature Schedule Name
  8.96666666666667,                       !- Annual Average Outdoor Air Temperature {C}
  26.2;                                   !- Maximum Difference In Monthly Average Outdoor Air Temperatures {deltaC}

OS:SizingPeriod:DesignDay,
  {d2ea5303-1cab-4484-8765-c0efc41e7f53}, !- Handle
  Buffalo Niagara Intl Ap Ann Clg .4% Condns WB=>MDB, !- Name
  27.8,                                   !- Maximum Dry-Bulb Temperature {C}
  9.3,                                    !- Daily Dry-Bulb Temperature Range {deltaC}
  23.8,                                   !- Humidity Indicating Conditions at Maximum Dry-Bulb
  98769,                                  !- Barometric Pressure {Pa}
  5.7,                                    !- Wind Speed {m/s}
  240,                                    !- Wind Direction {deg}
  0,                                      !- Sky Clearness
  0,                                      !- Rain Indicator
  0,                                      !- Snow Indicator
  21,                                     !- Day of Month
  7,                                      !- Month
  SummerDesignDay,                        !- Day Type
  0,                                      !- Daylight Saving Time Indicator
  Wetbulb,                                !- Humidity Indicating Type
  ,                                       !- Humidity Indicating Day Schedule Name
  DefaultMultipliers,                     !- Dry-Bulb Temperature Range Modifier Type
  ,                                       !- Dry-Bulb Temperature Range Modifier Schedule Name
  ASHRAETau,                              !- Solar Model Indicator
  ,                                       !- Beam Solar Day Schedule Name
  ,                                       !- Diffuse Solar Day Schedule Name
  0.462,                                  !- ASHRAE Taub {dimensionless}
  2.001;                                  !- ASHRAE Taud {dimensionless}

OS:SizingPeriod:DesignDay,
  {d3e2e368-11af-4a46-b61a-8dc2dd1ae3c0}, !- Handle
  Buffalo Niagara Intl Ap Ann Htg 99.6% Condns DB, !- Name
  -16.3,                                  !- Maximum Dry-Bulb Temperature {C}
  0,                                      !- Daily Dry-Bulb Temperature Range {deltaC}
  -16.3,                                  !- Humidity Indicating Conditions at Maximum Dry-Bulb
  98769,                                  !- Barometric Pressure {Pa}
  5.1,                                    !- Wind Speed {m/s}
  270,                                    !- Wind Direction {deg}
  0,                                      !- Sky Clearness
  0,                                      !- Rain Indicator
  0,                                      !- Snow Indicator
  21,                                     !- Day of Month
  1,                                      !- Month
  WinterDesignDay,                        !- Day Type
  0,                                      !- Daylight Saving Time Indicator
  Wetbulb,                                !- Humidity Indicating Type
  ,                                       !- Humidity Indicating Day Schedule Name
  DefaultMultipliers,                     !- Dry-Bulb Temperature Range Modifier Type
  ,                                       !- Dry-Bulb Temperature Range Modifier Schedule Name
  ASHRAEClearSky;                         !- Solar Model Indicator

OS:SizingPeriod:DesignDay,
  {ca988975-01c8-4ed1-ba88-6475feb6ab6b}, !- Handle
  Buffalo Niagara Intl Ap Ann Clg .4% Condns DB=>MWB, !- Name
  30.3,                                   !- Maximum Dry-Bulb Temperature {C}
  9.3,                                    !- Daily Dry-Bulb Temperature Range {deltaC}
  21.8,                                   !- Humidity Indicating Conditions at Maximum Dry-Bulb
  98769,                                  !- Barometric Pressure {Pa}
  5.7,                                    !- Wind Speed {m/s}
  240,                                    !- Wind Direction {deg}
  0,                                      !- Sky Clearness
  0,                                      !- Rain Indicator
  0,                                      !- Snow Indicator
  21,                                     !- Day of Month
  7,                                      !- Month
  SummerDesignDay,                        !- Day Type
  0,                                      !- Daylight Saving Time Indicator
  Wetbulb,                                !- Humidity Indicating Type
  ,                                       !- Humidity Indicating Day Schedule Name
  DefaultMultipliers,                     !- Dry-Bulb Temperature Range Modifier Type
  ,                                       !- Dry-Bulb Temperature Range Modifier Schedule Name
  ASHRAETau,                              !- Solar Model Indicator
  ,                                       !- Beam Solar Day Schedule Name
  ,                                       !- Diffuse Solar Day Schedule Name
  0.462,                                  !- ASHRAE Taub {dimensionless}
  2.001;                                  !- ASHRAE Taud {dimensionless}

OS:ClimateZones,
  {8a1c57cc-cd3d-4714-a260-c52bcab68800}, !- Handle
  ,                                       !- Active Institution
  ,                                       !- Active Year
  ASHRAE,                                 !- Climate Zone Institution Name 1
  ANSI/ASHRAE Standard 169,               !- Climate Zone Document Name 1
  2006,                                   !- Climate Zone Document Year 1
  6A;                                     !- Climate Zone Value 1

OS:Node,
  {be1952f9-ed49-4329-978e-f013b5c00d01}, !- Handle
  Node 1,                                 !- Name
  {fcacd66d-bdc7-4fa3-b0f5-85a62dacf10b}, !- Inlet Port
  ;                                       !- Outlet Port

OS:Connection,
  {fcacd66d-bdc7-4fa3-b0f5-85a62dacf10b}, !- Handle
  {f8099dc8-4534-4a47-b658-28e673b47568}, !- Name
  ,                                       !- Source Object
  11,                                     !- Outlet Port
  {be1952f9-ed49-4329-978e-f013b5c00d01}, !- Target Object
  2;                                      !- Inlet Port

OS:PortList,
  {51bb692f-f12a-4930-8dbc-be2bebb03b61}, !- Handle
  {ff7babde-d010-472f-be40-a56e8c502d14}, !- Name
  ;                                       !- HVAC Component

OS:PortList,
  {e49054af-4f5e-4c13-9e82-38541022389b}, !- Handle
  {d02ae1f4-f954-4c8a-bf01-3edfa2e8821f}, !- Name
  ;                                       !- HVAC Component

OS:PortList,
  {7346a7ea-19ee-4074-859c-9246eb6eec19}, !- Handle
  {ae35207a-90b7-4b28-a2f9-1c91aa491e60}, !- Name
  ;                                       !- HVAC Component

OS:Node,
  {9ab03aef-0406-4833-8645-f80429c3604c}, !- Handle
  Node 2,                                 !- Name
  {d2b9f358-1261-48a0-a6fd-75d64a6c9390}, !- Inlet Port
  ;                                       !- Outlet Port

OS:Connection,
  {d2b9f358-1261-48a0-a6fd-75d64a6c9390}, !- Handle
  {c424aeda-c038-476b-9cad-861b980a1b82}, !- Name
  ,                                       !- Source Object
  11,                                     !- Outlet Port
  {9ab03aef-0406-4833-8645-f80429c3604c}, !- Target Object
  2;                                      !- Inlet Port

OS:PortList,
  {1abe7dab-8883-4d1a-96a4-7a0d06f67a06}, !- Handle
  {409c34c3-1901-4241-aa58-622f0b46d6a3}, !- Name
  ;                                       !- HVAC Component

OS:PortList,
  {ea7229c4-e2f8-44e4-b508-b0ff19403878}, !- Handle
  {79844346-201d-4a36-92b4-fd6df2be75ac}, !- Name
  ;                                       !- HVAC Component

OS:PortList,
  {6caacc5f-a10c-411d-a349-3b07351bb37f}, !- Handle
  {ca61361d-d884-43f4-a28d-50706f4d23c7}, !- Name
  ;                                       !- HVAC Component

OS:Node,
  {0d0360c5-38e3-4703-8047-b3ca0d7166af}, !- Handle
  Node 3,                                 !- Name
  {7ecd2ff4-9a6d-4d23-8c5f-7c855a6dbc9f}, !- Inlet Port
  ;                                       !- Outlet Port

OS:Connection,
  {7ecd2ff4-9a6d-4d23-8c5f-7c855a6dbc9f}, !- Handle
  {0a66da71-6df6-4fca-9a1c-aea8eae0eb26}, !- Name
  ,                                       !- Source Object
  11,                                     !- Outlet Port
  {0d0360c5-38e3-4703-8047-b3ca0d7166af}, !- Target Object
  2;                                      !- Inlet Port

OS:PortList,
  {f6737765-a1d3-4fee-8c46-6eba3050662d}, !- Handle
  {46d72f67-1c84-4665-9f4f-be574c1dbde5}, !- Name
  ;                                       !- HVAC Component

OS:PortList,
  {f33b1613-5719-4f1b-a521-77b1de6ba343}, !- Handle
  {0dbc07d0-4ef0-4be1-832e-fed243fddee7}, !- Name
  ;                                       !- HVAC Component

OS:PortList,
  {a8358831-e6c7-471f-ac95-02b263528869}, !- Handle
  {ce3147de-a6c9-498b-b85f-71af58c379c0}, !- Name
  ;                                       !- HVAC Component

OS:Node,
  {61a1f484-7d87-4adf-9b4c-34ea9de6f383}, !- Handle
  Node 4,                                 !- Name
  {2dec3d61-2026-41b0-842b-0c04ac3e2f1d}, !- Inlet Port
  ;                                       !- Outlet Port

OS:Connection,
  {2dec3d61-2026-41b0-842b-0c04ac3e2f1d}, !- Handle
  {a9867b89-3c05-4720-b3cf-708a5b9e7d81}, !- Name
  ,                                       !- Source Object
  11,                                     !- Outlet Port
  {61a1f484-7d87-4adf-9b4c-34ea9de6f383}, !- Target Object
  2;                                      !- Inlet Port

OS:PortList,
  {385d2929-ad9d-497e-9761-e49079ffeb53}, !- Handle
  {e46e6ea9-5a0d-4680-ae31-e30dceed9c15}, !- Name
  ;                                       !- HVAC Component

OS:PortList,
  {784c5151-798d-4553-81c9-fcab18c7db07}, !- Handle
  {c5b53145-9fe4-49ff-8db7-df1c00cf8136}, !- Name
  ;                                       !- HVAC Component

OS:PortList,
  {17d6e3c1-9b21-4029-a1d7-0059f50df795}, !- Handle
  {406074e1-cd62-4a42-bff5-323f5c2d0a30}, !- Name
  ;                                       !- HVAC Component

OS:Node,
  {2ecdc7f3-dd17-4ca7-88bf-bf3d70aff113}, !- Handle
  Node 5,                                 !- Name
  {8ed584f5-c616-465b-ab38-9f1b24a26916}, !- Inlet Port
  ;                                       !- Outlet Port

OS:Connection,
  {8ed584f5-c616-465b-ab38-9f1b24a26916}, !- Handle
  {bc795ae3-ca41-45ed-bff5-29cf26c7f559}, !- Name
  ,                                       !- Source Object
  11,                                     !- Outlet Port
  {2ecdc7f3-dd17-4ca7-88bf-bf3d70aff113}, !- Target Object
  2;                                      !- Inlet Port

OS:PortList,
  {8be48d8e-066f-435e-b815-d1dc52011eb5}, !- Handle
  {a040021f-3fce-48c3-b6ad-df5ba985ad9f}, !- Name
  ;                                       !- HVAC Component

OS:PortList,
  {0b7151c0-f689-489f-89f4-8d9687d6a490}, !- Handle
  {e95166d4-d786-43db-b740-2f148595eb5e}, !- Name
  ;                                       !- HVAC Component

OS:PortList,
  {a9b14adc-5e75-40a4-b898-b6396e44452f}, !- Handle
  {10b5e256-9830-43fa-9d20-c3cd4168c655}, !- Name
  ;                                       !- HVAC Component

OS:Node,
  {f5e635fc-7c85-4e73-8cf2-ff0d88d96ae2}, !- Handle
  Node 6,                                 !- Name
  {34b16ecd-84c7-40bc-967d-9041562e9289}, !- Inlet Port
  ;                                       !- Outlet Port

OS:Connection,
  {34b16ecd-84c7-40bc-967d-9041562e9289}, !- Handle
  {9547ec7d-9408-4cb0-bb2a-13c6f4cc61f1}, !- Name
  ,                                       !- Source Object
  11,                                     !- Outlet Port
  {f5e635fc-7c85-4e73-8cf2-ff0d88d96ae2}, !- Target Object
  2;                                      !- Inlet Port

OS:PortList,
  {9d39aaea-fbea-4695-88bb-03cb599f170b}, !- Handle
  {5742ae36-948a-4555-bbfb-56fd4d3bb514}, !- Name
  ;                                       !- HVAC Component

OS:PortList,
  {469f1770-a41a-431a-ac55-33fde45cdf93}, !- Handle
  {e101dd1f-89d0-4413-b309-7079ba3f7ca1}, !- Name
  ;                                       !- HVAC Component

OS:PortList,
  {abc3ed06-9014-4d24-a280-a61feca9c684}, !- Handle
  {4d258f2a-2bdc-4d3c-be6f-2ac7a84ab815}, !- Name
  ;                                       !- HVAC Component

OS:Node,
  {f58ff573-2765-4202-af12-dab51f883944}, !- Handle
  Node 7,                                 !- Name
  {0a6eb6af-ab9e-4ebf-b927-356c9c262b92}, !- Inlet Port
  ;                                       !- Outlet Port

OS:Connection,
  {0a6eb6af-ab9e-4ebf-b927-356c9c262b92}, !- Handle
  {3b9bca45-d415-4590-9acc-2202606c0738}, !- Name
  ,                                       !- Source Object
  11,                                     !- Outlet Port
  {f58ff573-2765-4202-af12-dab51f883944}, !- Target Object
  2;                                      !- Inlet Port

OS:PortList,
  {73c1a80a-0b3c-44a9-bf27-63f557d63079}, !- Handle
  {21d5b07e-9af6-4c98-8354-71443391c4ec}, !- Name
  ;                                       !- HVAC Component

OS:PortList,
  {6f934eca-8aa2-476a-96dc-202accd4a8b5}, !- Handle
  {c01fb105-2038-4fc8-af0a-ff7910e9d50e}, !- Name
  ;                                       !- HVAC Component

OS:PortList,
  {c8dc8a2a-396b-4a9b-97be-441dedabe6a2}, !- Handle
  {f429dcab-fb3f-435d-907e-e8d8c95b564f}, !- Name
  ;                                       !- HVAC Component

OS:Node,
  {8dd39e9b-cfaf-49ac-90ad-a79f1da8fc55}, !- Handle
  Node 8,                                 !- Name
  {b500bf79-04f2-4181-8d59-dd740903f884}, !- Inlet Port
  ;                                       !- Outlet Port

OS:Connection,
  {b500bf79-04f2-4181-8d59-dd740903f884}, !- Handle
  {577449b6-85ac-49b8-827e-eb094e3e35ea}, !- Name
  ,                                       !- Source Object
  11,                                     !- Outlet Port
  {8dd39e9b-cfaf-49ac-90ad-a79f1da8fc55}, !- Target Object
  2;                                      !- Inlet Port

OS:PortList,
  {0f3751db-8494-437c-84f9-72d7267982d0}, !- Handle
  {b012599d-50dd-48ac-915d-83ff3d9acaf2}, !- Name
  ;                                       !- HVAC Component

OS:PortList,
  {76e4e679-1d77-4fe7-999e-d1232116c830}, !- Handle
  {300d747e-cf3c-4087-8616-e96e96446734}, !- Name
  ;                                       !- HVAC Component

OS:PortList,
  {16258b66-ea2a-4ce1-b6f1-5cbc2ac0f19d}, !- Handle
  {f3f616c0-7839-4b58-bafc-d58130f86331}, !- Name
  ;                                       !- HVAC Component

OS:Node,
  {fd469007-1899-414c-9d1c-81e11ca74277}, !- Handle
  Node 9,                                 !- Name
  {df94a269-67b5-4caa-8006-af5e2f127850}, !- Inlet Port
  ;                                       !- Outlet Port

OS:Connection,
  {df94a269-67b5-4caa-8006-af5e2f127850}, !- Handle
  {55de1233-ddb9-43ac-b080-4d50dd426112}, !- Name
  ,                                       !- Source Object
  11,                                     !- Outlet Port
  {fd469007-1899-414c-9d1c-81e11ca74277}, !- Target Object
  2;                                      !- Inlet Port

OS:PortList,
  {3e99d6ed-943d-49a0-9795-59a6e56f50c6}, !- Handle
  {2b32ff64-20a6-449e-85a6-16f74facf783}, !- Name
  ;                                       !- HVAC Component

OS:PortList,
  {762c5a7e-38c3-43ae-a902-35d7fbb2fc87}, !- Handle
  {2134c5e7-3b85-44ce-87a3-c26c3e031da9}, !- Name
  ;                                       !- HVAC Component

OS:PortList,
  {0a89060b-0eed-4287-84d6-912628c807bc}, !- Handle
  {d7b137f2-19e8-4780-9aa9-9ea431f97e0d}, !- Name
  ;                                       !- HVAC Component

OS:Node,
  {5060fe20-2151-4644-b49b-f19004515a23}, !- Handle
  Node 10,                                !- Name
  {9c3c96a8-5865-412f-8be0-edc10a8a745c}, !- Inlet Port
  ;                                       !- Outlet Port

OS:Connection,
  {9c3c96a8-5865-412f-8be0-edc10a8a745c}, !- Handle
  {32c0b6d8-bc51-46bb-8a32-bad3124f7d49}, !- Name
  ,                                       !- Source Object
  11,                                     !- Outlet Port
  {5060fe20-2151-4644-b49b-f19004515a23}, !- Target Object
  2;                                      !- Inlet Port

OS:PortList,
  {117ab8a3-1b10-4998-ad1d-b6c0cea7975f}, !- Handle
  {61788173-16de-493e-830e-ef44d32f301c}, !- Name
  ;                                       !- HVAC Component

OS:PortList,
  {31d6f631-2589-40bf-b741-9c442607c4fd}, !- Handle
  {89fb7a9e-1580-47f3-a041-b59ea22b5196}, !- Name
  ;                                       !- HVAC Component

OS:PortList,
  {d9a615ee-1610-4be7-9f90-80afbe0c6099}, !- Handle
  {d8748c0c-a8a3-4796-9cad-ec73d55e91c7}, !- Name
  ;                                       !- HVAC Component

OS:Node,
  {2e29e7de-b144-411d-a957-9725b99e56bb}, !- Handle
  Node 11,                                !- Name
  {f14178d8-e2e5-4fd3-baf9-2d87a03e5465}, !- Inlet Port
  ;                                       !- Outlet Port

OS:Connection,
  {f14178d8-e2e5-4fd3-baf9-2d87a03e5465}, !- Handle
  {2424bcbd-4f25-4086-99c5-055630f73eb0}, !- Name
  ,                                       !- Source Object
  11,                                     !- Outlet Port
  {2e29e7de-b144-411d-a957-9725b99e56bb}, !- Target Object
  2;                                      !- Inlet Port

OS:PortList,
  {8a727846-109c-47b9-a18f-8e39092654d6}, !- Handle
  {a5742aaf-2c3e-4ff3-adeb-fdbcf3f3eaf5}, !- Name
  ;                                       !- HVAC Component

OS:PortList,
  {f2248ffd-2944-408b-ae3f-963a5db7c472}, !- Handle
  {874dc3be-a150-4ccc-9988-1b2427ef6fc4}, !- Name
  ;                                       !- HVAC Component

OS:PortList,
  {a0dcff93-6256-4b57-ac08-66b7881fc511}, !- Handle
  {8a6d6424-d438-4082-a8f3-dce66ef71547}, !- Name
  ;                                       !- HVAC Component

OS:Node,
  {7a9d1956-4bb0-4b0c-bb3e-e5252c066038}, !- Handle
  Node 12,                                !- Name
  {17c14c8b-d58e-470e-b076-ba53df8818df}, !- Inlet Port
  ;                                       !- Outlet Port

OS:Connection,
  {17c14c8b-d58e-470e-b076-ba53df8818df}, !- Handle
  {e007d628-679b-4934-b5d0-563acf197657}, !- Name
  ,                                       !- Source Object
  11,                                     !- Outlet Port
  {7a9d1956-4bb0-4b0c-bb3e-e5252c066038}, !- Target Object
  2;                                      !- Inlet Port

OS:PortList,
  {d9ef5228-d1d3-4ced-8809-5581c26cf55f}, !- Handle
  {9185abe9-a3ab-4d75-afce-0e15b84ab475}, !- Name
  ;                                       !- HVAC Component

OS:PortList,
  {1fbc3306-8ebe-442a-8d21-fae2f645931d}, !- Handle
  {b3fb36ce-653c-4a1a-9fba-99706393c08d}, !- Name
  ;                                       !- HVAC Component

OS:PortList,
  {55bd9250-95ee-4c65-9419-f09323fe3376}, !- Handle
  {cf0fe3c2-d207-45cb-9fd3-333cb919f89c}, !- Name
  ;                                       !- HVAC Component

OS:Node,
  {af201056-6bba-4d21-b856-fed50f11af99}, !- Handle
  Node 13,                                !- Name
  {10f20ab7-fb5b-4851-834b-173cbdb26eb0}, !- Inlet Port
  ;                                       !- Outlet Port

OS:Connection,
  {10f20ab7-fb5b-4851-834b-173cbdb26eb0}, !- Handle
  {8e48104b-4c67-456d-856f-1f61e17a589f}, !- Name
  ,                                       !- Source Object
  11,                                     !- Outlet Port
  {af201056-6bba-4d21-b856-fed50f11af99}, !- Target Object
  2;                                      !- Inlet Port

OS:PortList,
  {618ae740-8559-46b2-ab40-2c500387e9c6}, !- Handle
  {60556425-6700-4ef2-9fb8-0b789873e9b5}, !- Name
  ;                                       !- HVAC Component

OS:PortList,
  {482cab1c-8033-4e4a-a3e9-bbb7dd1d2c4f}, !- Handle
  {0fad36f4-be47-4e5e-a0cf-c5b703e13ff4}, !- Name
  ;                                       !- HVAC Component

OS:PortList,
  {39385f63-0120-4a59-b161-0785103ca23a}, !- Handle
  {1e02b327-9a14-4b4a-9d48-badf33820882}, !- Name
  ;                                       !- HVAC Component

OS:Node,
  {a327df92-ec54-41fc-bbe5-68994a00f4c9}, !- Handle
  Node 14,                                !- Name
  {f2873acd-d865-4b40-9605-2a0d80691c74}, !- Inlet Port
  ;                                       !- Outlet Port

OS:Connection,
  {f2873acd-d865-4b40-9605-2a0d80691c74}, !- Handle
  {1f4b41b0-2d8e-47c8-9505-05d320fc43f7}, !- Name
  ,                                       !- Source Object
  11,                                     !- Outlet Port
  {a327df92-ec54-41fc-bbe5-68994a00f4c9}, !- Target Object
  2;                                      !- Inlet Port

OS:PortList,
  {fd5dc0d4-d471-464f-a080-9d7168a65061}, !- Handle
  {9c65b6df-e7b2-4936-9694-665c2c15ee2d}, !- Name
  ;                                       !- HVAC Component

OS:PortList,
  {c04f93c7-1303-43fc-914f-aec3012688c4}, !- Handle
  {e02b123c-7387-494e-a590-e5fd5cd9d291}, !- Name
  ;                                       !- HVAC Component

OS:PortList,
  {8326a1ad-0eec-4e55-b0a1-14cd9bb7c2a8}, !- Handle
  {bc8a072b-ba00-48bd-80d7-50b37c7010b6}, !- Name
  ;                                       !- HVAC Component

OS:Node,
  {faf65010-4fe1-4e7b-be5f-56e040faf87d}, !- Handle
  Node 15,                                !- Name
  {b1afe763-d91d-4517-95b8-daf9ea2bbc8a}, !- Inlet Port
  ;                                       !- Outlet Port

OS:Connection,
  {b1afe763-d91d-4517-95b8-daf9ea2bbc8a}, !- Handle
  {065f4390-aaf4-4fbf-9e52-f2bef99151cb}, !- Name
  ,                                       !- Source Object
  11,                                     !- Outlet Port
  {faf65010-4fe1-4e7b-be5f-56e040faf87d}, !- Target Object
  2;                                      !- Inlet Port

OS:PortList,
  {03feef07-4ba0-4eaa-ba03-c09dc761987d}, !- Handle
  {e16bc60c-1399-486c-84e1-d8d639d3a187}, !- Name
  ;                                       !- HVAC Component

OS:PortList,
  {0a0538cd-f381-49cf-aae0-36f462ce4b77}, !- Handle
  {98730296-6535-41d4-b2dd-d734b9642d57}, !- Name
  ;                                       !- HVAC Component

OS:PortList,
  {354b0616-1c11-4df5-b5fb-2015ef2c2170}, !- Handle
  {ad84ed28-8e09-4c6a-86c8-eb366784374a}, !- Name
  ;                                       !- HVAC Component

OS:Node,
  {ff047781-7010-43d4-b7f9-b600455086aa}, !- Handle
  Node 16,                                !- Name
  {3273a4df-47be-4413-9efe-58b485b42edb}, !- Inlet Port
  ;                                       !- Outlet Port

OS:Connection,
  {3273a4df-47be-4413-9efe-58b485b42edb}, !- Handle
  {8bde5148-85d6-4970-9e0c-54ce53b594d3}, !- Name
  ,                                       !- Source Object
  11,                                     !- Outlet Port
  {ff047781-7010-43d4-b7f9-b600455086aa}, !- Target Object
  2;                                      !- Inlet Port

OS:PortList,
  {07b694cf-5deb-4202-81e8-dc557dd97d7c}, !- Handle
  {fe3ff7c4-6554-4fc9-ba7c-c43354df36fa}, !- Name
  ;                                       !- HVAC Component

OS:PortList,
  {a3ce1430-00eb-48c9-be5d-0d6d68d960bb}, !- Handle
  {73a79c93-33ca-4034-bfc2-96b070150ccb}, !- Name
  ;                                       !- HVAC Component

OS:PortList,
  {27d170bb-1ba0-461e-a79c-28a0c03e544b}, !- Handle
  {a8339925-aa7f-4919-ae72-1bee7cf5b72f}, !- Name
  ;                                       !- HVAC Component

OS:Node,
  {cdd1256d-1637-4f15-b85b-e7f835d5d9e9}, !- Handle
  Node 17,                                !- Name
  {cbccb375-6445-4bbb-9ca1-da3510c3f431}, !- Inlet Port
  ;                                       !- Outlet Port

OS:Connection,
  {cbccb375-6445-4bbb-9ca1-da3510c3f431}, !- Handle
  {fc0982b7-97f4-4675-94ce-a2ca9a953715}, !- Name
  ,                                       !- Source Object
  11,                                     !- Outlet Port
  {cdd1256d-1637-4f15-b85b-e7f835d5d9e9}, !- Target Object
  2;                                      !- Inlet Port

OS:PortList,
  {67e85135-1d39-4a88-baae-a2a344f1ccee}, !- Handle
  {54e3c5ab-5a10-4c58-829b-32f73607e8d4}, !- Name
  ;                                       !- HVAC Component

OS:PortList,
  {dee28870-c7e1-41a0-971c-e04c06c9f251}, !- Handle
  {a0179f76-861d-410b-a863-d774ccc1e529}, !- Name
  ;                                       !- HVAC Component

OS:PortList,
  {a97bec7f-00c8-4e6a-b33e-22be8c879cec}, !- Handle
  {8f63a90f-6b55-46e7-b6b9-7d5258761761}, !- Name
  ;                                       !- HVAC Component

OS:Node,
  {6c6ec6fc-8287-4e2c-ace1-e0bc37211318}, !- Handle
  Node 18,                                !- Name
  {e19af929-635e-419d-a238-53a9ac1c7fe8}, !- Inlet Port
  ;                                       !- Outlet Port

OS:Connection,
  {e19af929-635e-419d-a238-53a9ac1c7fe8}, !- Handle
  {dfc49836-8537-4109-a8fa-7af9e2adceae}, !- Name
  ,                                       !- Source Object
  11,                                     !- Outlet Port
  {6c6ec6fc-8287-4e2c-ace1-e0bc37211318}, !- Target Object
  2;                                      !- Inlet Port

OS:PortList,
  {ba6809bb-3330-445a-a7ca-d85c2b3de691}, !- Handle
  {6a55a76f-61fb-4a26-a369-88b76b75825d}, !- Name
  ;                                       !- HVAC Component

OS:PortList,
  {d045fb23-a121-4c18-a633-e8a14240bdbf}, !- Handle
  {7842c3e6-f122-4ed6-aa57-ae3988a410ad}, !- Name
  ;                                       !- HVAC Component

OS:PortList,