
OS:Version,
  {d49d18ae-ec0c-475a-bb9a-befff8ec275a}, !- Handle
  2.8.0;                                  !- Version Identifier

OS:Facility,
  {28b8d33d-8eac-4418-9aff-cdb3b5713e5a}; !- Handle

OS:Site,
  {9407adf2-bcb5-470c-bbee-95223c0ad766}, !- Handle
  Buffalo Niagara Intl Ap_NY_USA,         !- Name
  42.815256692803,                        !- Latitude {deg}
  -78.8507825762069,                      !- Longitude {deg}
  -5,                                     !- Time Zone {hr}
  215,                                    !- Elevation {m}
  City;                                   !- Terrain

OS:SimulationControl,
  {6c2a3afb-819f-42bc-94cf-4a7ba10c3836}, !- Handle
  ,                                       !- Do Zone Sizing Calculation
  ,                                       !- Do System Sizing Calculation
  ,                                       !- Do Plant Sizing Calculation
  Yes,                                    !- Run Simulation for Sizing Periods
  No;                                     !- Run Simulation for Weather File Run Periods

OS:Sizing:Parameters,
  {1b55d392-1c70-4d81-a5c3-204b96b121f0}, !- Handle
  1.25,                                   !- Heating Sizing Factor
  1.15;                                   !- Cooling Sizing Factor

OS:Timestep,
  {71ca594d-9462-4992-bc9e-76e2f1d0feec}, !- Handle
  1;                                      !- Number of Timesteps per Hour

OS:ShadowCalculation,
  {e36d0f7e-49e3-4d22-9cd0-35fedb872f14}, !- Handle
  20,                                     !- Calculation Frequency
  15000;                                  !- Maximum Figures in Shadow Overlap Calculations

OS:HeatBalanceAlgorithm,
  {a29c32df-99a4-40c8-988b-eb875ecccfac}, !- Handle
  ConductionTransferFunction,             !- Algorithm
  200;                                    !- Surface Temperature Upper Limit {C}

OS:RunPeriod,
  {11369882-9074-4516-a947-5a56ef2e4857}, !- Handle
  Run Period 1,                           !- Name
  1,                                      !- Begin Month
  1,                                      !- Begin Day of Month
  12,                                     !- End Month
  31,                                     !- End Day of Month
  ,                                       !- Use Weather File Holidays and Special Days
  ,                                       !- Use Weather File Daylight Saving Period
  ,                                       !- Apply Weekend Holiday Rule
  ,                                       !- Use Weather File Rain Indicators
  ,                                       !- Use Weather File Snow Indicators
  ;                                       !- Number of Times Runperiod to be Repeated

OS:LifeCycleCost:Parameters,
  {24fb4526-1301-4ab5-8c6e-97eebc9a749e}, !- Handle
  ,                                       !- Analysis Type
  ,                                       !- Discounting Convention
  ,                                       !- Inflation Approach
  ,                                       !- Real Discount Rate
  ,                                       !- Nominal Discount Rate
  ,                                       !- Inflation
  ,                                       !- Base Date Month
  ,                                       !- Base Date Year
  ,                                       !- Service Date Month
  ,                                       !- Service Date Year
  ;                                       !- Length of Study Period in Years

OS:YearDescription,
  {1a3118f7-e7e5-4f82-852d-5f3934892648}, !- Handle
  2018,                                   !- Calendar Year
  ,                                       !- Day of Week for Start Day
  ;                                       !- Is Leap Year

OS:WeatherFile,
  {ee1c2377-6e6d-4a62-953b-e03ab77f3e54}, !- Handle
  Buffalo Niagara Intl Ap,                !- City
  NY,                                     !- State Province Region
  USA,                                    !- Country
  TMY3,                                   !- Data Source
  725280,                                 !- WMO Number
  42.93,                                  !- Latitude {deg}
  -78.73,                                 !- Longitude {deg}
  -5,                                     !- Time Zone {hr}
  215,                                    !- Elevation {m}
  file:////Users/tkwasnik/github/urbanopt-example-geojson-reopt-project/weather/USA_NY_Buffalo-Greater.Buffalo.Intl.AP.725280_TMY3.epw, !- Url
  ;                                       !- Checksum

OS:Site:WaterMainsTemperature,
  {f0f8885c-b220-4494-b065-42b466b04abf}, !- Handle
  Correlation,                            !- Calculation Method
  ,                                       !- Temperature Schedule Name
  8.96666666666667,                       !- Annual Average Outdoor Air Temperature {C}
  26.2;                                   !- Maximum Difference In Monthly Average Outdoor Air Temperatures {deltaC}

OS:SizingPeriod:DesignDay,
  {87a86650-c15c-4ef2-bab3-02c1a9b4178b}, !- Handle
  Buffalo Niagara Intl Ap Ann Htg 99.6% Condns DB, !- Name
  -16.3,                                  !- Maximum Dry-Bulb Temperature {C}
  0,                                      !- Daily Dry-Bulb Temperature Range {deltaC}
  -16.3,                                  !- Humidity Indicating Conditions at Maximum Dry-Bulb
  98769,                                  !- Barometric Pressure {Pa}
  5.1,                                    !- Wind Speed {m/s}
  270,                                    !- Wind Direction {deg}
  0,                                      !- Sky Clearness
  0,                                      !- Rain Indicator
  0,                                      !- Snow Indicator
  21,                                     !- Day of Month
  1,                                      !- Month
  WinterDesignDay,                        !- Day Type
  0,                                      !- Daylight Saving Time Indicator
  Wetbulb,                                !- Humidity Indicating Type
  ,                                       !- Humidity Indicating Day Schedule Name
  DefaultMultipliers,                     !- Dry-Bulb Temperature Range Modifier Type
  ,                                       !- Dry-Bulb Temperature Range Modifier Schedule Name
  ASHRAEClearSky;                         !- Solar Model Indicator

OS:SizingPeriod:DesignDay,
  {92e63a2a-5c38-4f4b-ab9a-8882acd84cf6}, !- Handle
  Buffalo Niagara Intl Ap Ann Clg .4% Condns DB=>MWB, !- Name
  30.3,                                   !- Maximum Dry-Bulb Temperature {C}
  9.3,                                    !- Daily Dry-Bulb Temperature Range {deltaC}
  21.8,                                   !- Humidity Indicating Conditions at Maximum Dry-Bulb
  98769,                                  !- Barometric Pressure {Pa}
  5.7,                                    !- Wind Speed {m/s}
  240,                                    !- Wind Direction {deg}
  0,                                      !- Sky Clearness
  0,                                      !- Rain Indicator
  0,                                      !- Snow Indicator
  21,                                     !- Day of Month
  7,                                      !- Month
  SummerDesignDay,                        !- Day Type
  0,                                      !- Daylight Saving Time Indicator
  Wetbulb,                                !- Humidity Indicating Type
  ,                                       !- Humidity Indicating Day Schedule Name
  DefaultMultipliers,                     !- Dry-Bulb Temperature Range Modifier Type
  ,                                       !- Dry-Bulb Temperature Range Modifier Schedule Name
  ASHRAETau,                              !- Solar Model Indicator
  ,                                       !- Beam Solar Day Schedule Name
  ,                                       !- Diffuse Solar Day Schedule Name
  0.462,                                  !- ASHRAE Taub {dimensionless}
  2.001;                                  !- ASHRAE Taud {dimensionless}

OS:SizingPeriod:DesignDay,
  {e7e071d9-b03d-4bfd-a362-a2b29d7c3205}, !- Handle
  Buffalo Niagara Intl Ap Ann Clg .4% Condns WB=>MDB, !- Name
  27.8,                                   !- Maximum Dry-Bulb Temperature {C}
  9.3,                                    !- Daily Dry-Bulb Temperature Range {deltaC}
  23.8,                                   !- Humidity Indicating Conditions at Maximum Dry-Bulb
  98769,                                  !- Barometric Pressure {Pa}
  5.7,                                    !- Wind Speed {m/s}
  240,                                    !- Wind Direction {deg}
  0,                                      !- Sky Clearness
  0,                                      !- Rain Indicator
  0,                                      !- Snow Indicator
  21,                                     !- Day of Month
  7,                                      !- Month
  SummerDesignDay,                        !- Day Type
  0,                                      !- Daylight Saving Time Indicator
  Wetbulb,                                !- Humidity Indicating Type
  ,                                       !- Humidity Indicating Day Schedule Name
  DefaultMultipliers,                     !- Dry-Bulb Temperature Range Modifier Type
  ,                                       !- Dry-Bulb Temperature Range Modifier Schedule Name
  ASHRAETau,                              !- Solar Model Indicator
  ,                                       !- Beam Solar Day Schedule Name
  ,                                       !- Diffuse Solar Day Schedule Name
  0.462,                                  !- ASHRAE Taub {dimensionless}
  2.001;                                  !- ASHRAE Taud {dimensionless}

OS:ClimateZones,
  {82ea7d81-ae8e-49aa-a005-8f539c11be0d}, !- Handle
  ,                                       !- Active Institution
  ,                                       !- Active Year
  ASHRAE,                                 !- Climate Zone Institution Name 1
  ANSI/ASHRAE Standard 169,               !- Climate Zone Document Name 1
  2006,                                   !- Climate Zone Document Year 1
  6A;                                     !- Climate Zone Value 1

OS:Node,
  {94bb5e38-9c75-4ff2-a8f0-356b723efa79}, !- Handle
  Node 1,                                 !- Name
  {d1e36f76-41c2-41a9-a0f7-9b51fc1fa591}, !- Inlet Port
  ;                                       !- Outlet Port

OS:Connection,
  {d1e36f76-41c2-41a9-a0f7-9b51fc1fa591}, !- Handle
  {56e32d13-ce7b-467c-bc41-1ee9fde57ede}, !- Name
  ,                                       !- Source Object
  11,                                     !- Outlet Port
  {94bb5e38-9c75-4ff2-a8f0-356b723efa79}, !- Target Object
  2;                                      !- Inlet Port

OS:PortList,
  {f47fc0b1-b064-4767-8feb-b044d2d73296}, !- Handle
  {159b3c7c-9437-48a0-afea-7ed658c300f3}, !- Name
  ;                                       !- HVAC Component

OS:PortList,
  {6d43f033-cd8b-42a5-b8d5-bac153555a95}, !- Handle
  {a980110d-ed02-435c-9b4b-15fe25ed23fd}, !- Name
  ;                                       !- HVAC Component

OS:PortList,
  {01a7ed3a-94a6-4b28-9297-51724e8d69ff}, !- Handle
  {cac13fe3-f320-495c-9ccb-673f948dd008}, !- Name
  ;                                       !- HVAC Component

OS:Node,
  {a6f06e0d-2447-4b2d-930c-d43c84be9847}, !- Handle
  Node 2,                                 !- Name
  {39a941fc-c9eb-4233-8fc6-c72cf079c18a}, !- Inlet Port
  ;                                       !- Outlet Port

OS:Connection,
  {39a941fc-c9eb-4233-8fc6-c72cf079c18a}, !- Handle
  {0131bd8c-2f7a-4ee6-97a8-9b2befa20082}, !- Name
  ,                                       !- Source Object
  11,                                     !- Outlet Port
  {a6f06e0d-2447-4b2d-930c-d43c84be9847}, !- Target Object
  2;                                      !- Inlet Port

OS:PortList,
  {d4fbe776-c77f-437c-bacb-8f03746c8a8d}, !- Handle
  {7d25b7de-d36d-4b23-abcd-551b4afcd9dc}, !- Name
  ;                                       !- HVAC Component

OS:PortList,
  {07ea7731-5cbf-421c-902d-4dc9c59f99a5}, !- Handle
  {1bc92d4d-4c47-4381-bfec-c45d0b0478f4}, !- Name
  ;                                       !- HVAC Component

OS:PortList,
  {9d143767-6bc3-4af4-9a0e-e2782917283d}, !- Handle
  {41733b77-e4db-4d18-9dfc-44201eb4a1b4}, !- Name
  ;                                       !- HVAC Component

OS:Node,
  {04727662-bc6a-49eb-9e12-319136128d9f}, !- Handle
  Node 3,                                 !- Name
  {a4b28976-42f6-43a8-b134-7a5350d89900}, !- Inlet Port
  ;                                       !- Outlet Port

OS:Connection,
  {a4b28976-42f6-43a8-b134-7a5350d89900}, !- Handle
  {ab57edfd-5710-4ea0-a3a2-312f2651558f}, !- Name
  ,                                       !- Source Object
  11,                                     !- Outlet Port
  {04727662-bc6a-49eb-9e12-319136128d9f}, !- Target Object
  2;                                      !- Inlet Port

OS:PortList,
  {3fc9a8d2-c128-4c3f-b6ec-ab05e1d71a35}, !- Handle
  {3360b7ae-4a26-4300-9a37-5f5d4f9a0156}, !- Name
  ;                                       !- HVAC Component

OS:PortList,
  {da7ef8a4-57f4-466b-9c4c-efacbde8a905}, !- Handle
  {b38a99ef-93f5-46e0-9816-08c3613cc40b}, !- Name
  ;                                       !- HVAC Component

OS:PortList,
  {faf8812e-3613-4e9a-8a1b-f2f7d4b6a565}, !- Handle
  {15edb6cc-da4b-416a-9675-8a5c19e2ee96}, !- Name
  ;                                       !- HVAC Component

OS:Node,
  {688bf6df-2b53-4138-94c2-23847925b1a8}, !- Handle
  Node 4,                                 !- Name
  {f82cb3b1-5db6-4b9d-99f9-920cb748a5ff}, !- Inlet Port
  ;                                       !- Outlet Port

OS:Connection,
  {f82cb3b1-5db6-4b9d-99f9-920cb748a5ff}, !- Handle
  {46797c7d-fd2c-4496-8c7f-175f00052537}, !- Name
  ,                                       !- Source Object
  11,                                     !- Outlet Port
  {688bf6df-2b53-4138-94c2-23847925b1a8}, !- Target Object
  2;                                      !- Inlet Port

OS:PortList,
  {a7ea1755-f13b-4786-b71b-2ee7a8f5c217}, !- Handle
  {b595d2bc-d147-4ca5-8540-55256a9c3473}, !- Name
  ;                                       !- HVAC Component

OS:PortList,
  {bb05cbe8-d0d3-47bf-86dc-13a1d670fd44}, !- Handle
  {2968a4d2-4902-4dd3-8cf5-862338ae0e30}, !- Name
  ;                                       !- HVAC Component

OS:PortList,
  {d655d29a-22ac-441e-941e-757fd977f992}, !- Handle
  {df399929-0be1-4057-939a-8a3f36d88d0d}, !- Name
  ;                                       !- HVAC Component

OS:Node,
  {ff103768-d293-4a6c-a8df-7ac48d9f4003}, !- Handle
  Node 5,                                 !- Name
  {48df0d5b-e364-40f9-8f8e-2241951fe33e}, !- Inlet Port
  ;                                       !- Outlet Port

OS:Connection,
  {48df0d5b-e364-40f9-8f8e-2241951fe33e}, !- Handle
  {4088cd13-ddc6-4a64-a173-7bc42d8db410}, !- Name
  ,                                       !- Source Object
  11,                                     !- Outlet Port
  {ff103768-d293-4a6c-a8df-7ac48d9f4003}, !- Target Object
  2;                                      !- Inlet Port

OS:PortList,
  {659a0860-a795-400e-821b-9bb874802833}, !- Handle
  {eb95e73d-345c-4cf9-9c44-e15c3f1bc2f1}, !- Name
  ;                                       !- HVAC Component

OS:PortList,
  {b4e914cc-1780-4959-bcbf-f7fae4f7e3e5}, !- Handle
  {8987233a-524e-439a-b650-38c9add63c14}, !- Name
  ;                                       !- HVAC Component

OS:PortList,
  {1f597c64-4aed-4294-9f50-883713eeacb0}, !- Handle
  {2ecb74cc-749c-4783-a931-b474de23fbc6}, !- Name
  ;                                       !- HVAC Component

OS:Node,
  {70e31d2d-ef09-4089-a46f-9471636fbf46}, !- Handle
  Node 6,                                 !- Name
  {59a7109d-b58c-4c2c-9c9e-0b3e5c38f774}, !- Inlet Port
  ;                                       !- Outlet Port

OS:Connection,
  {59a7109d-b58c-4c2c-9c9e-0b3e5c38f774}, !- Handle
  {3dc3c7e1-043d-4f28-a1f1-1612ba43b19e}, !- Name
  ,                                       !- Source Object
  11,                                     !- Outlet Port
  {70e31d2d-ef09-4089-a46f-9471636fbf46}, !- Target Object
  2;                                      !- Inlet Port

OS:PortList,
  {0dcfe67c-f0ea-489d-bf17-ed399d58799c}, !- Handle
  {18635a54-875c-42a0-b1c7-539ac26ba855}, !- Name
  ;                                       !- HVAC Component

OS:PortList,
  {f7b09aed-797f-4b91-a094-056180c13c13}, !- Handle
  {bd9a5abb-d9d2-44ec-becf-48bab4cc1ece}, !- Name
  ;                                       !- HVAC Component

OS:PortList,
  {75220976-8ad6-43b8-9806-cd9ba7061df4}, !- Handle
  {639a0061-94bd-44e5-8600-1cba4e04319d}, !- Name
  ;                                       !- HVAC Component

OS:Node,
  {5ee0e7b6-dbb2-4d96-a4cc-18594715199b}, !- Handle
  Node 7,                                 !- Name
  {83a0390a-1e28-416c-a88f-2cc2adcdca82}, !- Inlet Port
  ;                                       !- Outlet Port

OS:Connection,
  {83a0390a-1e28-416c-a88f-2cc2adcdca82}, !- Handle
  {591fe708-dfb3-4c15-bb5a-b1f38b623761}, !- Name
  ,                                       !- Source Object
  11,                                     !- Outlet Port
  {5ee0e7b6-dbb2-4d96-a4cc-18594715199b}, !- Target Object
  2;                                      !- Inlet Port

OS:PortList,
  {0e254e6a-868f-4a68-817d-f8ee8607aad9}, !- Handle
  {288ab8aa-2daa-429c-8cc3-e12dcdfcc6d6}, !- Name
  ;                                       !- HVAC Component

OS:PortList,
  {78401164-eacd-4df6-be9d-77948e015647}, !- Handle
  {4e6e8bd2-5345-429f-8f0b-2948503c99fc}, !- Name
  ;                                       !- HVAC Component

OS:PortList,
  {65c02066-cefb-4c41-a8ff-18dd5c70489f}, !- Handle
  {9acb3a04-9c4f-4ae5-aede-8024c3febc4a}, !- Name
  ;                                       !- HVAC Component

OS:Node,
  {3a5bc1c0-754e-4a95-8a22-a6ee25596198}, !- Handle
  Node 8,                                 !- Name
  {f0e9b531-12d1-4ef0-b113-ad67baa7c432}, !- Inlet Port
  ;                                       !- Outlet Port

OS:Connection,
  {f0e9b531-12d1-4ef0-b113-ad67baa7c432}, !- Handle
  {b24211c3-10e4-46bd-aeac-514c96a011e1}, !- Name
  ,                                       !- Source Object
  11,                                     !- Outlet Port
  {3a5bc1c0-754e-4a95-8a22-a6ee25596198}, !- Target Object
  2;                                      !- Inlet Port

OS:PortList,
  {65a39833-9198-47a1-a28b-8002575e6f1b}, !- Handle
  {1083a83f-bcfe-41ce-803d-e356e5c5aeca}, !- Name
  ;                                       !- HVAC Component

OS:PortList,
  {ae56bab4-e8bd-45f6-aaec-8b1581100d9d}, !- Handle
  {45cd10bc-737c-41e2-a8a2-70c36b025f6e}, !- Name
  ;                                       !- HVAC Component

OS:PortList,
  {8cf0977f-ed27-43a3-990e-33c437e2727d}, !- Handle
  {687e665b-851d-4e60-bd30-d5b4b221e998}, !- Name
  ;                                       !- HVAC Component

OS:Node,
  {55f9e4b3-a07e-42fd-acb8-86740e14a680}, !- Handle
  Node 9,                                 !- Name
  {8406f192-35e5-47ea-aa35-2c12fc70bc28}, !- Inlet Port
  ;                                       !- Outlet Port

OS:Connection,
  {8406f192-35e5-47ea-aa35-2c12fc70bc28}, !- Handle
  {7b5fc391-9b9f-403c-8d6a-e89df19f82d8}, !- Name
  ,                                       !- Source Object
  11,                                     !- Outlet Port
  {55f9e4b3-a07e-42fd-acb8-86740e14a680}, !- Target Object
  2;                                      !- Inlet Port

OS:PortList,
  {9a872064-c415-4ecb-8600-3a3316eebb4b}, !- Handle
  {30097dd5-5c6f-48ce-8971-acc9b70b21b0}, !- Name
  ;                                       !- HVAC Component

OS:PortList,
  {891e7061-eb18-40da-a38a-35aed4a41d07}, !- Handle
  {ea6a50d2-f6f5-482d-986d-dae45529af2a}, !- Name
  ;                                       !- HVAC Component

OS:PortList,
  {1443bc4d-a6c6-4f6e-b046-4112706937bb}, !- Handle
  {6669bbbc-815b-4c90-9865-8f14d2812aff}, !- Name
  ;                                       !- HVAC Component

OS:Node,
  {aa38dfb3-abc4-4c5c-bcc0-c6e262fa2e89}, !- Handle
  Node 10,                                !- Name
  {cd7d5ef2-db4b-4488-9fbd-1e439beb7d44}, !- Inlet Port
  ;                                       !- Outlet Port

OS:Connection,
  {cd7d5ef2-db4b-4488-9fbd-1e439beb7d44}, !- Handle
  {728614d3-83bb-457a-b3f9-3b90c3166f8c}, !- Name
  ,                                       !- Source Object
  11,                                     !- Outlet Port
  {aa38dfb3-abc4-4c5c-bcc0-c6e262fa2e89}, !- Target Object
  2;                                      !- Inlet Port

OS:PortList,
  {3eab4b3c-156a-4425-817c-193a44628322}, !- Handle
  {0bfd8094-be62-4af5-b194-5bc95834f4ca}, !- Name
  ;                                       !- HVAC Component

OS:PortList,
  {f76a093c-a392-4967-af78-7013282130fc}, !- Handle
  {6440af02-c8b2-4ed9-ba47-1e8ef38a1067}, !- Name
  ;                                       !- HVAC Component

OS:PortList,
  {90cc5d9d-5117-4c6d-b1e3-d493913543c9}, !- Handle
  {770cc704-fff4-436b-92a5-76a4ea038540}, !- Name
  ;                                       !- HVAC Component

OS:Node,
  {919bef40-ef52-425b-911b-bda6d259c317}, !- Handle
  Node 11,                                !- Name
  {84f19892-88a6-4c2e-aaa7-163548aff5e0}, !- Inlet Port
  ;                                       !- Outlet Port

OS:Connection,
  {84f19892-88a6-4c2e-aaa7-163548aff5e0}, !- Handle
  {8ef9a83f-97df-40fa-b3db-c019faa28833}, !- Name
  ,                                       !- Source Object
  11,                                     !- Outlet Port
  {919bef40-ef52-425b-911b-bda6d259c317}, !- Target Object
  2;                                      !- Inlet Port

OS:PortList,
  {a902a44b-b395-42cc-9f37-25793a34db5f}, !- Handle
  {7efbc999-de71-4c93-85e6-19d18c776d70}, !- Name
  ;                                       !- HVAC Component

OS:PortList,
  {ec977071-c5f2-425f-a054-3db93d47e73a}, !- Handle
  {c80b5342-edfa-475b-a618-ac81c6a8781f}, !- Name
  ;                                       !- HVAC Component

OS:PortList,
  {b0e5e308-eff3-4f1f-ae96-f2eadb768c68}, !- Handle
  {a6f1cce3-60f6-4e10-872f-dbf1f561441a}, !- Name
  ;                                       !- HVAC Component

OS:Node,
  {b5865699-feff-4846-a500-6adb9a0300e3}, !- Handle
  Node 12,                                !- Name
  {a2b7512f-fdda-46c9-9aee-5ff8f0b528fd}, !- Inlet Port
  ;                                       !- Outlet Port

OS:Connection,
  {a2b7512f-fdda-46c9-9aee-5ff8f0b528fd}, !- Handle
  {5e28e20c-869c-468e-8141-39932d7a86f0}, !- Name
  ,                                       !- Source Object
  11,                                     !- Outlet Port
  {b5865699-feff-4846-a500-6adb9a0300e3}, !- Target Object
  2;                                      !- Inlet Port

OS:PortList,
  {1d69c61d-ad9a-4182-8459-e7a4f28d90b9}, !- Handle
  {1cc1007f-2586-4ab2-ac31-3c0ed8e61d0a}, !- Name
  ;                                       !- HVAC Component

OS:PortList,
  {78a749e9-751d-462f-9921-e9b203ac240f}, !- Handle
  {a3fe2a0a-920c-4b1e-8a95-81f65ea3d016}, !- Name
  ;                                       !- HVAC Component

OS:PortList,
  {b6b672ac-cf8d-4656-b2f4-8c7265b8ae66}, !- Handle
  {ed57b4fd-b9fd-413a-b8ad-d47f8b6932b4}, !- Name
  ;                                       !- HVAC Component

OS:Node,
  {8ffc79b0-972d-4649-b663-1d955a93b1fb}, !- Handle
  Node 13,                                !- Name
  {b5ded632-d6a0-41dc-ab42-dec8f3abcc80}, !- Inlet Port
  ;                                       !- Outlet Port

OS:Connection,
  {b5ded632-d6a0-41dc-ab42-dec8f3abcc80}, !- Handle
  {51a023d3-4977-4413-a03f-2a2681c30ec9}, !- Name
  ,                                       !- Source Object
  11,                                     !- Outlet Port
  {8ffc79b0-972d-4649-b663-1d955a93b1fb}, !- Target Object
  2;                                      !- Inlet Port

OS:PortList,
  {05b477e7-3be2-40e0-98c3-7f0096494bbc}, !- Handle
  {4b78e055-2714-487d-913c-667046140c2d}, !- Name
  ;                                       !- HVAC Component

OS:PortList,
  {f6fa6000-5749-4765-8ea2-dff1c5e131cd}, !- Handle
  {a2fcf137-584f-4a90-8614-287c3b183902}, !- Name
  ;                                       !- HVAC Component

OS:PortList,
  {9d0e1ba0-083f-4b5e-9c4c-c56a9eec97b2}, !- Handle
  {d4a268fe-ff84-4db8-9791-cbe8ffa961f7}, !- Name
  ;                                       !- HVAC Component

OS:Node,
  {ef885940-4733-4565-b394-7733989bd194}, !- Handle
  Node 14,                                !- Name
  {7b4f3763-bc3e-457d-a1f1-87e0e4b28abb}, !- Inlet Port
  ;                                       !- Outlet Port

OS:Connection,
  {7b4f3763-bc3e-457d-a1f1-87e0e4b28abb}, !- Handle
  {159e209b-05da-45f1-b768-aa2dfc1c9b24}, !- Name
  ,                                       !- Source Object
  11,                                     !- Outlet Port
  {ef885940-4733-4565-b394-7733989bd194}, !- Target Object
  2;                                      !- Inlet Port

OS:PortList,
  {1f2dd381-e4aa-442f-845f-5e120e7935ec}, !- Handle
  {94cccfb7-9733-42d7-93f7-a4ae172359b1}, !- Name
  ;                                       !- HVAC Component

OS:PortList,
  {16ac54db-c5ff-42f8-a240-2136210df2a6}, !- Handle
  {db602eca-d9ab-4b93-9984-99418ec934ee}, !- Name
  ;                                       !- HVAC Component

OS:PortList,
  {047efb39-b895-45a6-b7bb-5d61df3a0599}, !- Handle
  {fc70eba1-3798-4f73-8861-db17a8c132d9}, !- Name
  ;                                       !- HVAC Component

OS:Node,
  {665a5fc6-c473-4392-8223-eadec0c13318}, !- Handle
  Node 15,                                !- Name
  {11abc8fb-4b06-4143-b1ba-0bcb4a2b69cd}, !- Inlet Port
  ;                                       !- Outlet Port

OS:Connection,
  {11abc8fb-4b06-4143-b1ba-0bcb4a2b69cd}, !- Handle
  {91f780ca-53d8-4fad-8a0a-66b83dc931b1}, !- Name
  ,                                       !- Source Object
  11,                                     !- Outlet Port
  {665a5fc6-c473-4392-8223-eadec0c13318}, !- Target Object
  2;                                      !- Inlet Port

OS:PortList,
  {9d245de1-1ce7-42e5-878c-46d2f232e38a}, !- Handle
  {5e7fc885-871b-4395-a02b-cf87dada49a7}, !- Name
  ;                                       !- HVAC Component

OS:PortList,
  {08ec7add-27b5-41b0-9976-30dbac855fd0}, !- Handle
  {1e716983-fcae-43d5-8a3f-11574d02ffa2}, !- Name
  ;                                       !- HVAC Component

OS:PortList,
  {531fa5d4-f6cb-46e8-928e-edb84d6b089f}, !- Handle
  {02fe95cc-1677-42bf-ab57-8a6ec13709f2}, !- Name
  ;                                       !- HVAC Component

OS:Node,
  {e7091f45-f992-4760-9397-349e57159236}, !- Handle
  Node 16,                                !- Name
  {61561aad-623c-4012-b523-a7b9e41434b0}, !- Inlet Port
  ;                                       !- Outlet Port

OS:Connection,
  {61561aad-623c-4012-b523-a7b9e41434b0}, !- Handle
  {d6a9a047-7ab7-4201-a9cb-0a9eb5f7a646}, !- Name
  ,                                       !- Source Object
  11,                                     !- Outlet Port
  {e7091f45-f992-4760-9397-349e57159236}, !- Target Object
  2;                                      !- Inlet Port

OS:PortList,
  {7aecae02-6069-43a0-82c8-81a9f09f7685}, !- Handle
  {41dc7397-abd4-4ab1-88cd-3674f28855f6}, !- Name
  ;                                       !- HVAC Component

OS:PortList,
  {121b9ae0-bde6-4a01-a49e-cf0beac5870a}, !- Handle
  {bc9bad2e-bc64-4465-9b05-caa0e1131f6a}, !- Name
  ;                                       !- HVAC Component

OS:PortList,
  {f912f94f-e698-4ade-aea8-80cda6d9cb0d}, !- Handle
  {ae813add-cffd-4ad6-81fb-5e9fbbd12916}, !- Name
  ;                                       !- HVAC Component

OS:Node,
  {1d757f30-5fd3-4953-87b2-dee499c3866c}, !- Handle
  Node 17,                                !- Name
  {76eaf53d-f894-4519-9c0f-899f21ac0d3b}, !- Inlet Port
  ;                                       !- Outlet Port

OS:Connection,
  {76eaf53d-f894-4519-9c0f-899f21ac0d3b}, !- Handle
  {aafe5cfd-80ca-4d43-a656-81debaac32fb}, !- Name
  ,                                       !- Source Object
  11,                                     !- Outlet Port
  {1d757f30-5fd3-4953-87b2-dee499c3866c}, !- Target Object
  2;                                      !- Inlet Port

OS:PortList,
  {91f913e1-f9c3-45a3-92de-2192abf03d37}, !- Handle
  {d3269810-e885-4274-9c3c-532e23e5c561}, !- Name
  ;                                       !- HVAC Component

OS:PortList,
  {1474414a-b482-42bc-becc-bf6f821bd997}, !- Handle
  {7ce1dc6d-1e01-4ea8-a3fd-bc49bb6404e5}, !- Name
  ;                                       !- HVAC Component

OS:PortList,
  {1c411986-be3e-4737-8b0a-2fe4afb2b9e7}, !- Handle
  {c522e8c7-32d9-470d-8765-6933805a9215}, !- Name
  ;                                       !- HVAC Component

OS:Node,
  {c7a56b93-8abd-45b6-ade5-53cf1f357170}, !- Handle
  Node 18,                                !- Name
  {a5dc5821-806d-4841-9989-3ae768244f97}, !- Inlet Port
  ;                                       !- Outlet Port

OS:Connection,
  {a5dc5821-806d-4841-9989-3ae768244f97}, !- Handle
  {8bae5a47-3647-4ada-ba50-b05acf193239}, !- Name
  ,                                       !- Source Object
  11,                                     !- Outlet Port
  {c7a56b93-8abd-45b6-ade5-53cf1f357170}, !- Target Object
  2;                                      !- Inlet Port

OS:PortList,
  {ba9efa63-e174-4f50-bd8d-a5b64ec5222b}, !- Handle
  {d0374f76-7f4a-4637-b458-b8f057fdf865}, !- Name
  ;                                       !- HVAC Component

OS:PortList,
  {58755389-afaa-48c8-9935-595c3e7445a9}, !- Handle
  {510c8168-d9f7-46d9-8909-73b0bbbc76e0}, !- Name
  ;                                       !- HVAC Component

OS:PortList,