
OS:Version,
  {9d4b2851-8dc3-4185-acd1-0aec416fa63c}, !- Handle
  2.8.0;                                  !- Version Identifier

OS:Facility,
  {85dd2c46-5713-4084-a198-87e51f87ef57}; !- Handle

OS:Site,
  {17603a77-f3ea-4334-a743-933bf35fd67f}, !- Handle
  Buffalo Niagara Intl Ap_NY_USA,         !- Name
  42.8170218879136,                       !- Latitude {deg}
  -78.8491529713029,                      !- Longitude {deg}
  -5,                                     !- Time Zone {hr}
  215,                                    !- Elevation {m}
  City;                                   !- Terrain

OS:SimulationControl,
  {03cd9f9d-cd97-48ee-ad29-beff3d02dd6e}, !- Handle
  ,                                       !- Do Zone Sizing Calculation
  ,                                       !- Do System Sizing Calculation
  ,                                       !- Do Plant Sizing Calculation
  No,                                     !- Run Simulation for Sizing Periods
  Yes;                                    !- Run Simulation for Weather File Run Periods

OS:Sizing:Parameters,
  {3a13d84d-f23c-46ee-b981-8b068600fd01}, !- Handle
  1.25,                                   !- Heating Sizing Factor
  1.15;                                   !- Cooling Sizing Factor

OS:Timestep,
  {eef19fda-fdb3-4446-86a1-5daecdadd1fd}, !- Handle
  1;                                      !- Number of Timesteps per Hour

OS:ShadowCalculation,
  {82a6c58a-7cac-4423-9197-001361ba7b51}, !- Handle
  20,                                     !- Calculation Frequency
  15000;                                  !- Maximum Figures in Shadow Overlap Calculations

OS:HeatBalanceAlgorithm,
  {67a6e177-854a-434c-879f-7256dc5b0002}, !- Handle
  ConductionTransferFunction,             !- Algorithm
  200;                                    !- Surface Temperature Upper Limit {C}

OS:RunPeriod,
  {ac9bcd15-cbe8-41d9-8337-596404df014b}, !- Handle
  Run Period 1,                           !- Name
  1,                                      !- Begin Month
  1,                                      !- Begin Day of Month
  12,                                     !- End Month
  31,                                     !- End Day of Month
  ,                                       !- Use Weather File Holidays and Special Days
  ,                                       !- Use Weather File Daylight Saving Period
  ,                                       !- Apply Weekend Holiday Rule
  ,                                       !- Use Weather File Rain Indicators
  ,                                       !- Use Weather File Snow Indicators
  ;                                       !- Number of Times Runperiod to be Repeated

OS:LifeCycleCost:Parameters,
  {4fe6bd82-daa0-44f5-95e3-96fa1a64029a}, !- Handle
  ,                                       !- Analysis Type
  ,                                       !- Discounting Convention
  ,                                       !- Inflation Approach
  ,                                       !- Real Discount Rate
  ,                                       !- Nominal Discount Rate
  ,                                       !- Inflation
  ,                                       !- Base Date Month
  ,                                       !- Base Date Year
  ,                                       !- Service Date Month
  ,                                       !- Service Date Year
  ;                                       !- Length of Study Period in Years

OS:YearDescription,
  {e05d16cd-2555-4c0f-a87d-fb74dd43d61b}, !- Handle
  2018,                                   !- Calendar Year
  ,                                       !- Day of Week for Start Day
  ;                                       !- Is Leap Year

OS:WeatherFile,
  {1a3cf385-38a4-4901-bdba-40bb9b4940a3}, !- Handle
  Buffalo Niagara Intl Ap,                !- City
  NY,                                     !- State Province Region
  USA,                                    !- Country
  TMY3,                                   !- Data Source
  725280,                                 !- WMO Number
  42.93,                                  !- Latitude {deg}
  -78.73,                                 !- Longitude {deg}
  -5,                                     !- Time Zone {hr}
  215,                                    !- Elevation {m}
  file:////Users/tkwasnik/github/urbanopt-example-geojson-reopt-project/weather/USA_NY_Buffalo-Greater.Buffalo.Intl.AP.725280_TMY3.epw, !- Url
  ;                                       !- Checksum

OS:Site:WaterMainsTemperature,
  {a513cf58-d9cd-4f32-bbe6-c4cdc195db7c}, !- Handle
  Correlation,                            !- Calculation Method
  ,                                       !- Temperature Schedule Name
  8.96666666666667,                       !- Annual Average Outdoor Air Temperature {C}
  26.2;                                   !- Maximum Difference In Monthly Average Outdoor Air Temperatures {deltaC}

OS:SizingPeriod:DesignDay,
  {2169c8e8-c73c-41a4-b350-a669c16bd2b8}, !- Handle
  Buffalo Niagara Intl Ap Ann Clg .4% Condns WB=>MDB, !- Name
  27.8,                                   !- Maximum Dry-Bulb Temperature {C}
  9.3,                                    !- Daily Dry-Bulb Temperature Range {deltaC}
  23.8,                                   !- Humidity Indicating Conditions at Maximum Dry-Bulb
  98769,                                  !- Barometric Pressure {Pa}
  5.7,                                    !- Wind Speed {m/s}
  240,                                    !- Wind Direction {deg}
  0,                                      !- Sky Clearness
  0,                                      !- Rain Indicator
  0,                                      !- Snow Indicator
  21,                                     !- Day of Month
  7,                                      !- Month
  SummerDesignDay,                        !- Day Type
  0,                                      !- Daylight Saving Time Indicator
  Wetbulb,                                !- Humidity Indicating Type
  ,                                       !- Humidity Indicating Day Schedule Name
  DefaultMultipliers,                     !- Dry-Bulb Temperature Range Modifier Type
  ,                                       !- Dry-Bulb Temperature Range Modifier Schedule Name
  ASHRAETau,                              !- Solar Model Indicator
  ,                                       !- Beam Solar Day Schedule Name
  ,                                       !- Diffuse Solar Day Schedule Name
  0.462,                                  !- ASHRAE Taub {dimensionless}
  2.001;                                  !- ASHRAE Taud {dimensionless}

OS:SizingPeriod:DesignDay,
  {f8e20bd7-8e20-4b96-be0f-115ed5320ba2}, !- Handle
  Buffalo Niagara Intl Ap Ann Clg .4% Condns DB=>MWB, !- Name
  30.3,                                   !- Maximum Dry-Bulb Temperature {C}
  9.3,                                    !- Daily Dry-Bulb Temperature Range {deltaC}
  21.8,                                   !- Humidity Indicating Conditions at Maximum Dry-Bulb
  98769,                                  !- Barometric Pressure {Pa}
  5.7,                                    !- Wind Speed {m/s}
  240,                                    !- Wind Direction {deg}
  0,                                      !- Sky Clearness
  0,                                      !- Rain Indicator
  0,                                      !- Snow Indicator
  21,                                     !- Day of Month
  7,                                      !- Month
  SummerDesignDay,                        !- Day Type
  0,                                      !- Daylight Saving Time Indicator
  Wetbulb,                                !- Humidity Indicating Type
  ,                                       !- Humidity Indicating Day Schedule Name
  DefaultMultipliers,                     !- Dry-Bulb Temperature Range Modifier Type
  ,                                       !- Dry-Bulb Temperature Range Modifier Schedule Name
  ASHRAETau,                              !- Solar Model Indicator
  ,                                       !- Beam Solar Day Schedule Name
  ,                                       !- Diffuse Solar Day Schedule Name
  0.462,                                  !- ASHRAE Taub {dimensionless}
  2.001;                                  !- ASHRAE Taud {dimensionless}

OS:SizingPeriod:DesignDay,
  {8103cfde-aa9f-4262-975e-d189615542aa}, !- Handle
  Buffalo Niagara Intl Ap Ann Htg 99.6% Condns DB, !- Name
  -16.3,                                  !- Maximum Dry-Bulb Temperature {C}
  0,                                      !- Daily Dry-Bulb Temperature Range {deltaC}
  -16.3,                                  !- Humidity Indicating Conditions at Maximum Dry-Bulb
  98769,                                  !- Barometric Pressure {Pa}
  5.1,                                    !- Wind Speed {m/s}
  270,                                    !- Wind Direction {deg}
  0,                                      !- Sky Clearness
  0,                                      !- Rain Indicator
  0,                                      !- Snow Indicator
  21,                                     !- Day of Month
  1,                                      !- Month
  WinterDesignDay,                        !- Day Type
  0,                                      !- Daylight Saving Time Indicator
  Wetbulb,                                !- Humidity Indicating Type
  ,                                       !- Humidity Indicating Day Schedule Name
  DefaultMultipliers,                     !- Dry-Bulb Temperature Range Modifier Type
  ,                                       !- Dry-Bulb Temperature Range Modifier Schedule Name
  ASHRAEClearSky;                         !- Solar Model Indicator

OS:ClimateZones,
  {65121231-e70c-4abf-9afd-4ca1d228ec12}, !- Handle
  ,                                       !- Active Institution
  ,                                       !- Active Year
  ASHRAE,                                 !- Climate Zone Institution Name 1
  ANSI/ASHRAE Standard 169,               !- Climate Zone Document Name 1
  2006,                                   !- Climate Zone Document Year 1
  6A;                                     !- Climate Zone Value 1

OS:Node,
  {22a33f5e-6a5a-4087-bf13-43cd612d99f5}, !- Handle
  Node 1,                                 !- Name
  {29d80c08-605a-49c2-9e4c-d5239305b9c4}, !- Inlet Port
  ;                                       !- Outlet Port

OS:Connection,
  {29d80c08-605a-49c2-9e4c-d5239305b9c4}, !- Handle
  {f385b80f-248e-4e24-9329-4449fb6ce218}, !- Name
  ,                                       !- Source Object
  11,                                     !- Outlet Port
  {22a33f5e-6a5a-4087-bf13-43cd612d99f5}, !- Target Object
  2;                                      !- Inlet Port

OS:PortList,
  {e4d72e85-baa0-4928-8321-6f23715b7cb8}, !- Handle
  {74352e0d-7099-4379-aeaa-f274ae4f9474}, !- Name
  ;                                       !- HVAC Component

OS:PortList,
  {a924f0d2-d7ac-4292-b5ca-333b74a62407}, !- Handle
  {0a84861e-bbb2-497e-94f8-592ce2b2ba08}, !- Name
  ;                                       !- HVAC Component

OS:PortList,
  {a7cd4409-fdd5-4e64-a9c5-19d45ccb8ed1}, !- Handle
  {1707b68e-8cfa-4be3-8538-2549d6e31f06}, !- Name
  ;                                       !- HVAC Component

OS:Node,
  {9c5e95fd-dcec-41c5-8a42-9309db5e307f}, !- Handle
  Node 2,                                 !- Name
  {e9b18f84-1792-4b2f-93ec-8877ccdc01d5}, !- Inlet Port
  ;                                       !- Outlet Port

OS:Connection,
  {e9b18f84-1792-4b2f-93ec-8877ccdc01d5}, !- Handle
  {bd256cfb-6495-471f-9326-88ceca796228}, !- Name
  ,                                       !- Source Object
  11,                                     !- Outlet Port
  {9c5e95fd-dcec-41c5-8a42-9309db5e307f}, !- Target Object
  2;                                      !- Inlet Port

OS:PortList,
  {aeca3b23-a568-4d1d-ace5-07a9c26c104d}, !- Handle
  {3f69b0bc-18b1-45c0-bb51-36adef92cb4c}, !- Name
  ;                                       !- HVAC Component

OS:PortList,
  {4439a51a-ec4e-410a-805d-d0ddf5e1e9f5}, !- Handle
  {f8de4391-4720-4ef1-b4e2-5deefe0d4d0d}, !- Name
  ;                                       !- HVAC Component

OS:PortList,
  {69c52b02-70bb-421b-9353-f57696aa5d7a}, !- Handle
  {ac6a2c31-f391-47f0-9935-ae6ba890ed00}, !- Name
  ;                                       !- HVAC Component

OS:Node,
  {47d15444-c254-4d75-a157-8c0f2199bac7}, !- Handle
  Node 3,                                 !- Name
  {6d699942-afb4-4551-b2e9-8bf2a45e1be7}, !- Inlet Port
  ;                                       !- Outlet Port

OS:Connection,
  {6d699942-afb4-4551-b2e9-8bf2a45e1be7}, !- Handle
  {e550a4c2-5d01-439a-a52d-78e494bf8dff}, !- Name
  ,                                       !- Source Object
  11,                                     !- Outlet Port
  {47d15444-c254-4d75-a157-8c0f2199bac7}, !- Target Object
  2;                                      !- Inlet Port

OS:PortList,
  {a2dcc8e8-dff4-407b-b372-60d52c71fcd2}, !- Handle
  {c23bbe6d-50de-464a-baf4-0fe6ffebafd2}, !- Name
  ;                                       !- HVAC Component

OS:PortList,
  {f7c16bb4-cf6d-4d61-9b3c-6b493d67f5d9}, !- Handle
  {c8b7d5c5-0cbc-4dd8-9d3b-25aeb4fb7147}, !- Name
  ;                                       !- HVAC Component

OS:PortList,
  {905b01bd-e29f-48b9-a123-1700b98a75a7}, !- Handle
  {7c3a64b2-81c1-4f16-87b3-e454b696cc85}, !- Name
  ;                                       !- HVAC Component

OS:Node,
  {51fbbd35-5792-4846-b89f-f6e73edcaff6}, !- Handle
  Node 4,                                 !- Name
  {bd7ba82a-bca0-4cd0-91cb-1cfd2db2711f}, !- Inlet Port
  ;                                       !- Outlet Port

OS:Connection,
  {bd7ba82a-bca0-4cd0-91cb-1cfd2db2711f}, !- Handle
  {e6958fe7-41a1-4b1e-ad56-365d405c31a9}, !- Name
  ,                                       !- Source Object
  11,                                     !- Outlet Port
  {51fbbd35-5792-4846-b89f-f6e73edcaff6}, !- Target Object
  2;                                      !- Inlet Port

OS:PortList,
  {c769c50c-b606-4781-9358-a769e6af8e1b}, !- Handle
  {6ad1f783-672c-438e-b9cf-d70931e4f308}, !- Name
  ;                                       !- HVAC Component

OS:PortList,
  {2edb771d-2766-43d3-b0f3-a3cca2441d3e}, !- Handle
  {6a1e615b-6d0e-438c-aa7f-e0f65c2a4766}, !- Name
  ;                                       !- HVAC Component

OS:PortList,
  {d31da00e-5390-4da1-815f-8a4110949c44}, !- Handle
  {3f5f5cba-6e44-4c47-9e02-832c921e796f}, !- Name
  ;                                       !- HVAC Component

OS:Node,
  {99e26d6b-515f-4530-ad88-7867dbd8f60a}, !- Handle
  Node 5,                                 !- Name
  {c77a1d77-3284-4913-8d95-b7eeb6a64d32}, !- Inlet Port
  ;                                       !- Outlet Port

OS:Connection,
  {c77a1d77-3284-4913-8d95-b7eeb6a64d32}, !- Handle
  {82b66559-53e5-4770-b09d-5060500f9142}, !- Name
  ,                                       !- Source Object
  11,                                     !- Outlet Port
  {99e26d6b-515f-4530-ad88-7867dbd8f60a}, !- Target Object
  2;                                      !- Inlet Port

OS:PortList,
  {20d60a1b-5576-4ac9-9129-27a78cce3f38}, !- Handle
  {11bfd712-9526-406b-8657-5963e296881c}, !- Name
  ;                                       !- HVAC Component

OS:PortList,
  {0314f5a6-3e93-445c-b42d-a2b97ab4bc51}, !- Handle
  {13a53137-6185-4981-8f70-17e9fbe3c933}, !- Name
  ;                                       !- HVAC Component

OS:PortList,
  {e356d4d0-4944-4c4f-9902-de7710bb547b}, !- Handle
  {674e42ec-6597-4e1c-969d-56f908273604}, !- Name
  ;                                       !- HVAC Component

OS:Node,
  {cc3cfbd3-9a1b-4b6f-af73-d5489d434441}, !- Handle
  Node 6,                                 !- Name
  {0ec2bbe2-71b5-4108-88bd-748d7f5d8bc8}, !- Inlet Port
  ;                                       !- Outlet Port

OS:Connection,
  {0ec2bbe2-71b5-4108-88bd-748d7f5d8bc8}, !- Handle
  {f3b12395-0aea-4a3b-aec4-bff70a39f752}, !- Name
  ,                                       !- Source Object
  11,                                     !- Outlet Port
  {cc3cfbd3-9a1b-4b6f-af73-d5489d434441}, !- Target Object
  2;                                      !- Inlet Port

OS:PortList,
  {78bb6f20-9ef9-4f50-9812-67e0acc6fe96}, !- Handle
  {7808d0bf-5102-4eb6-b701-97e2d04e3117}, !- Name
  ;                                       !- HVAC Component

OS:PortList,
  {11061424-e568-4b0b-8e99-418dda3f673f}, !- Handle
  {61de552e-26a4-4cb2-b6d2-22b3c55e7ba1}, !- Name
  ;                                       !- HVAC Component

OS:PortList,
  {c4198e03-57c8-48ef-9e9c-e5a44f769ec2}, !- Handle
  {1521441a-1f7f-4a40-a0a3-bd873883398d}, !- Name
  ;                                       !- HVAC Component

OS:Node,
  {76a5185d-424c-4125-bb37-179f151b14cd}, !- Handle
  Node 7,                                 !- Name
  {f61f75f6-1ff3-4403-9520-a03a0a71e6db}, !- Inlet Port
  ;                                       !- Outlet Port

OS:Connection,
  {f61f75f6-1ff3-4403-9520-a03a0a71e6db}, !- Handle
  {4988e596-4756-445c-bd1d-1833b2d2a80c}, !- Name
  ,                                       !- Source Object
  11,                                     !- Outlet Port
  {76a5185d-424c-4125-bb37-179f151b14cd}, !- Target Object
  2;                                      !- Inlet Port

OS:PortList,
  {1e5ef7fa-02dc-4808-aed0-1af479e78bcf}, !- Handle
  {a7239f57-e0c7-4f85-9df8-610f3cde2338}, !- Name
  ;                                       !- HVAC Component

OS:PortList,
  {1e7f05d0-e2db-470e-bdb7-3b32ae873611}, !- Handle
  {7ed526a5-8f6c-4ab3-ad38-7ae63cc0a610}, !- Name
  ;                                       !- HVAC Component

OS:PortList,
  {e08f8795-e822-4cfb-b3d2-de0b498e853a}, !- Handle
  {d42fe646-8d9a-4307-bfef-45a9a4686691}, !- Name
  ;                                       !- HVAC Component

OS:Node,
  {1d228453-22b7-458d-b12a-bd155c7b4f85}, !- Handle
  Node 8,                                 !- Name
  {f93bbf23-23e6-40a8-84c3-2244c8c967fe}, !- Inlet Port
  ;                                       !- Outlet Port

OS:Connection,
  {f93bbf23-23e6-40a8-84c3-2244c8c967fe}, !- Handle
  {f1f3c270-f496-4e3a-90a8-9025184ca6a7}, !- Name
  ,                                       !- Source Object
  11,                                     !- Outlet Port
  {1d228453-22b7-458d-b12a-bd155c7b4f85}, !- Target Object
  2;                                      !- Inlet Port

OS:PortList,
  {e2adf848-c47f-4327-84e3-5d952b0a2a5c}, !- Handle
  {0e6d7cd7-9355-4a28-8d34-69c1bad41a8f}, !- Name
  ;                                       !- HVAC Component

OS:PortList,
  {c4c9ff24-fbb1-4826-bfda-30b21dc5ca7a}, !- Handle
  {46b2d7cf-6683-4a3d-8271-294eda9ab72c}, !- Name
  ;                                       !- HVAC Component

OS:PortList,
  {46fe93e8-bf1d-4c0f-8d3b-41cf311e0a0a}, !- Handle
  {3186bd4e-067a-4da1-839f-002efabdad7c}, !- Name
  ;                                       !- HVAC Component

OS:Node,
  {556ad5dc-42ec-4d1d-aeb3-b3985332f43c}, !- Handle
  Node 9,                                 !- Name
  {f5ec58aa-89a0-46dd-a46d-9e6d88abfe52}, !- Inlet Port
  ;                                       !- Outlet Port

OS:Connection,
  {f5ec58aa-89a0-46dd-a46d-9e6d88abfe52}, !- Handle
  {9317330e-5391-41a8-861f-fbcfba7e4b16}, !- Name
  ,                                       !- Source Object
  11,                                     !- Outlet Port
  {556ad5dc-42ec-4d1d-aeb3-b3985332f43c}, !- Target Object
  2;                                      !- Inlet Port

OS:PortList,
  {1204a72f-6397-4019-b652-eb958c7ab600}, !- Handle
  {92cd359d-6315-4b11-a6b5-ef95a409ab49}, !- Name
  ;                                       !- HVAC Component

OS:PortList,
  {77d9c312-08b5-4525-9e39-cdaf390d9403}, !- Handle
  {a76c732b-654e-443b-b1de-94a9a7adaf67}, !- Name
  ;                                       !- HVAC Component

OS:PortList,
  {e9dd2b16-4d7f-4e51-b9d0-a6da7770bfed}, !- Handle
  {82e10368-6971-4349-b19c-8720a0a4bf31}, !- Name
  ;                                       !- HVAC Component

OS:Node,
  {88bf5bec-910b-4f61-9b75-b0d879c4a986}, !- Handle
  Node 10,                                !- Name
  {addd7ec6-5432-47c6-b29b-1f58c4a1df0c}, !- Inlet Port
  ;                                       !- Outlet Port

OS:Connection,
  {addd7ec6-5432-47c6-b29b-1f58c4a1df0c}, !- Handle
  {28a94d65-e940-49ed-bd7d-d049910d8787}, !- Name
  ,                                       !- Source Object
  11,                                     !- Outlet Port
  {88bf5bec-910b-4f61-9b75-b0d879c4a986}, !- Target Object
  2;                                      !- Inlet Port

OS:PortList,
  {d137f284-1bd0-4f37-bba6-f2a5e92fc50a}, !- Handle
  {6d83d427-1edb-457d-bec2-5d03fe06dcfb}, !- Name
  ;                                       !- HVAC Component

OS:PortList,
  {5708c1d1-16c2-4e7b-8f7c-fc3bc558722d}, !- Handle
  {ab2fe0d4-d24f-4b5c-b43e-77151a6fe164}, !- Name
  ;                                       !- HVAC Component

OS:PortList,
  {9072f1c7-02a2-4266-8bee-43b659ac28b2}, !- Handle
  {39683859-2f52-49a2-a77c-559e6d3ff928}, !- Name
  ;                                       !- HVAC Component

OS:Node,
  {9cb17a48-b3a4-4fc8-a39b-3e56ed7070d1}, !- Handle
  Node 11,                                !- Name
  {644cb8b5-7b57-4501-ba77-1bd7e9dc6661}, !- Inlet Port
  ;                                       !- Outlet Port

OS:Connection,
  {644cb8b5-7b57-4501-ba77-1bd7e9dc6661}, !- Handle
  {5ad60932-7698-4c61-b696-a5567ede4ee9}, !- Name
  ,                                       !- Source Object
  11,                                     !- Outlet Port
  {9cb17a48-b3a4-4fc8-a39b-3e56ed7070d1}, !- Target Object
  2;                                      !- Inlet Port

OS:PortList,
  {4375e75c-d9df-4379-aee2-312f4768ea55}, !- Handle
  {be6c6cfb-c026-4af9-a9b3-a29b7adfb3ea}, !- Name
  ;                                       !- HVAC Component

OS:PortList,
  {0b99df38-d71b-4087-9bdc-633fd415f5cf}, !- Handle
  {87efa4c1-7b01-4661-acde-666ff2da2780}, !- Name
  ;                                       !- HVAC Component

OS:PortList,
  {bb727abf-1c1d-4f36-b73c-1140acb0b879}, !- Handle
  {eab45ad1-a967-474a-8077-b793d29d8d18}, !- Name
  ;                                       !- HVAC Component

OS:Node,
  {c31bca33-e890-49d5-a77c-411e6a60e4d7}, !- Handle
  Node 12,                                !- Name
  {c1b25013-fd51-4e0a-a71b-c3365c93db97}, !- Inlet Port
  ;                                       !- Outlet Port

OS:Connection,
  {c1b25013-fd51-4e0a-a71b-c3365c93db97}, !- Handle
  {ee3cf0ac-0668-4559-b80e-4386425eaf69}, !- Name
  ,                                       !- Source Object
  11,                                     !- Outlet Port
  {c31bca33-e890-49d5-a77c-411e6a60e4d7}, !- Target Object
  2;                                      !- Inlet Port

OS:PortList,
  {457128cd-a06a-47a4-9d54-a3705add6dcd}, !- Handle
  {cbceb80b-39a1-4f98-be93-5dcb8abd2bce}, !- Name
  ;                                       !- HVAC Component

OS:PortList,
  {de8f9182-7507-48cc-8e04-5229679fb0e6}, !- Handle
  {41e76c82-6aaa-40f9-b4d4-afdf4a29c34b}, !- Name
  ;                                       !- HVAC Component

OS:PortList,
  {5622dfcb-6886-4aca-8ced-b47e3a581faf}, !- Handle
  {bcf179c8-0e5d-44fb-97cd-6af95855f84a}, !- Name
  ;                                       !- HVAC Component

OS:Node,
  {5cb44cc5-2fe2-42be-ac66-c273af19435f}, !- Handle
  Node 13,                                !- Name
  {f55f7090-de0f-49dd-bed3-4175f61b6f24}, !- Inlet Port
  ;                                       !- Outlet Port

OS:Connection,
  {f55f7090-de0f-49dd-bed3-4175f61b6f24}, !- Handle
  {e1a5f254-4832-4457-b998-d0839fa25c47}, !- Name
  ,                                       !- Source Object
  11,                                     !- Outlet Port
  {5cb44cc5-2fe2-42be-ac66-c273af19435f}, !- Target Object
  2;                                      !- Inlet Port

OS:PortList,
  {135418a4-42ec-438d-8a67-8f8a81e7922c}, !- Handle
  {a52d297e-2d45-4f2e-ac54-498253f9013b}, !- Name
  ;                                       !- HVAC Component

OS:PortList,
  {f0ec3edb-7bfc-4513-b8f0-fcdb42175b0e}, !- Handle
  {7eef43e0-a884-4a56-be4c-a017178c2d32}, !- Name
  ;                                       !- HVAC Component

OS:PortList,
  {e7461ed2-711a-4dd1-808c-ab3fbe027e34}, !- Handle
  {6375a3d0-5b76-4b92-8d95-dca9505f9abe}, !- Name
  ;                                       !- HVAC Component

OS:Node,
  {0e377b8b-51f5-450f-9b7a-384a57adb4ca}, !- Handle
  Node 14,                                !- Name
  {ad2315b5-2a9a-4909-b0ff-8920b9e51783}, !- Inlet Port
  ;                                       !- Outlet Port

OS:Connection,
  {ad2315b5-2a9a-4909-b0ff-8920b9e51783}, !- Handle
  {bbc7ec2c-127c-41b1-86fc-fbb281e13223}, !- Name
  ,                                       !- Source Object
  11,                                     !- Outlet Port
  {0e377b8b-51f5-450f-9b7a-384a57adb4ca}, !- Target Object
  2;                                      !- Inlet Port

OS:PortList,
  {6bc5d3e7-62e4-4bd4-95cb-8370af0ab5ce}, !- Handle
  {9f7cc170-fe65-4e4b-a8d7-8a4556e7873c}, !- Name
  ;                                       !- HVAC Component

OS:PortList,
  {f40e7fce-17c6-45bf-9f89-071359d9db2a}, !- Handle
  {9067ce54-ad7c-4e88-84ef-15f184eaac22}, !- Name
  ;                                       !- HVAC Component

OS:PortList,
  {53a0ebab-f3b9-44a2-8e40-3cde366d9b68}, !- Handle
  {7cd56372-64f8-436b-9dd8-d8c5b06ade60}, !- Name
  ;                                       !- HVAC Component

OS:Node,
  {af51c607-fb4f-455a-b3bf-f74835cfa53c}, !- Handle
  Node 15,                                !- Name
  {b70442d1-158f-46fd-bdcb-551ff2bcf706}, !- Inlet Port
  ;                                       !- Outlet Port

OS:Connection,
  {b70442d1-158f-46fd-bdcb-551ff2bcf706}, !- Handle
  {3278fdba-e62e-401a-8fb2-2f171f54ab98}, !- Name
  ,                                       !- Source Object
  11,                                     !- Outlet Port
  {af51c607-fb4f-455a-b3bf-f74835cfa53c}, !- Target Object
  2;                                      !- Inlet Port

OS:PortList,
  {a19760bd-2ee2-4f0b-a753-2616f8b25ba9}, !- Handle
  {3e974bf1-e7ab-4452-a8dd-f3301c40ccb8}, !- Name
  ;                                       !- HVAC Component

OS:PortList,
  {f0fe14cc-c1e6-4512-aeb7-9d33e6f180df}, !- Handle
  {ef415e79-5082-40bb-97d0-07470e448932}, !- Name
  ;                                       !- HVAC Component

OS:PortList,
  {feed82ad-5ebb-40b9-8296-d9ec7fefa59a}, !- Handle
  {6b17be68-e53a-4784-8e7b-a03aa61db26c}, !- Name
  ;                                       !- HVAC Component

OS:Node,
  {aa0fb2e2-f4b6-49e8-873b-56dbaff4ebd4}, !- Handle
  Node 16,                                !- Name
  {d007cdfc-b7c0-4bbf-a8fa-fe7e1fdac88a}, !- Inlet Port
  ;                                       !- Outlet Port

OS:Connection,
  {d007cdfc-b7c0-4bbf-a8fa-fe7e1fdac88a}, !- Handle
  {f79f8aa4-4c84-4715-b2c5-a754f71ef097}, !- Name
  ,                                       !- Source Object
  11,                                     !- Outlet Port
  {aa0fb2e2-f4b6-49e8-873b-56dbaff4ebd4}, !- Target Object
  2;                                      !- Inlet Port

OS:PortList,
  {d8b7bab9-3b0c-4411-8f9f-fe6b9aac5e5e}, !- Handle
  {c3e2f04e-73bf-4bdb-bc53-1b21cec646a4}, !- Name
  ;                                       !- HVAC Component

OS:PortList,
  {e43fd13b-e06c-46b3-8a60-2848e2143439}, !- Handle
  {5c3ef298-96e6-4252-b1c4-d85872b1c2b1}, !- Name
  ;                                       !- HVAC Component

OS:PortList,
  {823eaf4f-5ce9-4b3b-84a4-93248f1eb71b}, !- Handle
  {687277cd-5475-4f58-8c35-9d636dbd1c8b}, !- Name
  ;                                       !- HVAC Component

OS:Node,
  {38b7ed06-305f-4e89-8914-fac8a0298915}, !- Handle
  Node 17,                                !- Name
  {6f47214a-dee5-4385-825a-1b5077328b08}, !- Inlet Port
  ;                                       !- Outlet Port

OS:Connection,
  {6f47214a-dee5-4385-825a-1b5077328b08}, !- Handle
  {f5c05707-5a22-4725-8441-200b8243e37a}, !- Name
  ,                                       !- Source Object
  11,                                     !- Outlet Port
  {38b7ed06-305f-4e89-8914-fac8a0298915}, !- Target Object
  2;                                      !- Inlet Port

OS:PortList,
  {43f359d8-670c-4563-aff3-3c93dedfa802}, !- Handle
  {4a50f12f-c0ed-4fa4-a8bb-dd9888121e35}, !- Name
  ;                                       !- HVAC Component

OS:PortList,
  {32367820-605b-4fac-b153-3c30f6e5968d}, !- Handle
  {c95ba9ff-aff7-4aaa-903b-1c75f0a66356}, !- Name
  ;                                       !- HVAC Component

OS:PortList,
  {90571f99-e965-4c24-9ccc-f605c0f71cba}, !- Handle
  {9308615d-6faa-4a6b-99b4-a23086fea9c7}, !- Name
  ;                                       !- HVAC Component

OS:Node,
  {c46b9f12-8d77-4a88-865e-6fb7c90f3085}, !- Handle
  Node 18,                                !- Name
  {f6953ea2-2fee-48fd-88df-7b865023a3cd}, !- Inlet Port
  ;                                       !- Outlet Port

OS:Connection,
  {f6953ea2-2fee-48fd-88df-7b865023a3cd}, !- Handle
  {a02ca9d4-dd99-4864-925e-84a71f18f602}, !- Name
  ,                                       !- Source Object
  11,                                     !- Outlet Port
  {c46b9f12-8d77-4a88-865e-6fb7c90f3085}, !- Target Object
  2;                                      !- Inlet Port

OS:PortList,
  {31c5d6a6-ed1a-42be-aae1-36fc42ea1b05}, !- Handle
  {cdfe471b-006b-4ebc-99e0-ca5f55935271}, !- Name
  ;                                       !- HVAC Component

OS:PortList,
  {37285fe3-dcae-402b-846e-1cd073f5d0dd}, !- Handle
  {666506e3-a556-46bc-8437-64f0eb1318de}, !- Name
  ;                                       !- HVAC Component

OS:PortList,