
OS:Version,
  {688f5088-f86d-4b6e-874b-0c4bb21dba83}, !- Handle
  2.8.0;                                  !- Version Identifier

OS:Facility,
  {370f34dd-5807-44ed-8df8-397fbd9f1d3a}; !- Handle

OS:Site,
  {103a30d0-2ed2-402c-8a20-64dedbe6c926}, !- Handle
  Buffalo Niagara Intl Ap_NY_USA,         !- Name
  42.8157608099409,                       !- Latitude {deg}
  -78.8485427512932,                      !- Longitude {deg}
  -5,                                     !- Time Zone {hr}
  215,                                    !- Elevation {m}
  City;                                   !- Terrain

OS:SimulationControl,
  {f5351992-a2cd-4886-bdf9-cd7256c364a6}, !- Handle
  ,                                       !- Do Zone Sizing Calculation
  ,                                       !- Do System Sizing Calculation
  ,                                       !- Do Plant Sizing Calculation
  Yes,                                    !- Run Simulation for Sizing Periods
  No;                                     !- Run Simulation for Weather File Run Periods

OS:Sizing:Parameters,
  {48e52a3a-4b61-4f1b-a611-75af2cac6219}, !- Handle
  1.25,                                   !- Heating Sizing Factor
  1.15;                                   !- Cooling Sizing Factor

OS:Timestep,
  {8fe876a3-2081-4575-be6c-3d67474ac1cf}, !- Handle
  1;                                      !- Number of Timesteps per Hour

OS:ShadowCalculation,
  {489576cb-9305-4f9d-853f-32a6fe9e5e56}, !- Handle
  20,                                     !- Calculation Frequency
  15000;                                  !- Maximum Figures in Shadow Overlap Calculations

OS:HeatBalanceAlgorithm,
  {e437870c-fdd8-4c1b-85fb-7cedd5b6fc28}, !- Handle
  ConductionTransferFunction,             !- Algorithm
  200;                                    !- Surface Temperature Upper Limit {C}

OS:RunPeriod,
  {c5e2608e-3763-48ba-876b-e15abdd1bf38}, !- Handle
  Run Period 1,                           !- Name
  1,                                      !- Begin Month
  1,                                      !- Begin Day of Month
  12,                                     !- End Month
  31,                                     !- End Day of Month
  ,                                       !- Use Weather File Holidays and Special Days
  ,                                       !- Use Weather File Daylight Saving Period
  ,                                       !- Apply Weekend Holiday Rule
  ,                                       !- Use Weather File Rain Indicators
  ,                                       !- Use Weather File Snow Indicators
  ;                                       !- Number of Times Runperiod to be Repeated

OS:LifeCycleCost:Parameters,
  {2b38f0ef-9156-4140-8dbb-146f29aa7440}, !- Handle
  ,                                       !- Analysis Type
  ,                                       !- Discounting Convention
  ,                                       !- Inflation Approach
  ,                                       !- Real Discount Rate
  ,                                       !- Nominal Discount Rate
  ,                                       !- Inflation
  ,                                       !- Base Date Month
  ,                                       !- Base Date Year
  ,                                       !- Service Date Month
  ,                                       !- Service Date Year
  ;                                       !- Length of Study Period in Years

OS:YearDescription,
  {95533c30-614d-488c-9140-566ede17dd7e}, !- Handle
  2018,                                   !- Calendar Year
  ,                                       !- Day of Week for Start Day
  ;                                       !- Is Leap Year

OS:WeatherFile,
  {b744a142-c126-448d-8bf2-57cacd604933}, !- Handle
  Buffalo Niagara Intl Ap,                !- City
  NY,                                     !- State Province Region
  USA,                                    !- Country
  TMY3,                                   !- Data Source
  725280,                                 !- WMO Number
  42.93,                                  !- Latitude {deg}
  -78.73,                                 !- Longitude {deg}
  -5,                                     !- Time Zone {hr}
  215,                                    !- Elevation {m}
  file:///Users/tkwasnik/github/urbanopt-example-geojson-reopt-project/run/baseline_scenario/7/006_create_typical_building_from_model/SR1/in.epw, !- Url
  6B50E0FF;                               !- Checksum

OS:Site:WaterMainsTemperature,
  {ec4e9d32-e693-4501-9ce2-9ab88773a037}, !- Handle
  Correlation,                            !- Calculation Method
  ,                                       !- Temperature Schedule Name
  8.96666666666667,                       !- Annual Average Outdoor Air Temperature {C}
  26.2;                                   !- Maximum Difference In Monthly Average Outdoor Air Temperatures {deltaC}

OS:SizingPeriod:DesignDay,
  {c0a58143-6fd1-4a58-b55d-46330528b400}, !- Handle
  Buffalo Niagara Intl Ap Ann Clg .4% Condns WB=>MDB, !- Name
  27.8,                                   !- Maximum Dry-Bulb Temperature {C}
  9.3,                                    !- Daily Dry-Bulb Temperature Range {deltaC}
  23.8,                                   !- Humidity Indicating Conditions at Maximum Dry-Bulb
  98769,                                  !- Barometric Pressure {Pa}
  5.7,                                    !- Wind Speed {m/s}
  240,                                    !- Wind Direction {deg}
  0,                                      !- Sky Clearness
  0,                                      !- Rain Indicator
  0,                                      !- Snow Indicator
  21,                                     !- Day of Month
  7,                                      !- Month
  SummerDesignDay,                        !- Day Type
  0,                                      !- Daylight Saving Time Indicator
  Wetbulb,                                !- Humidity Indicating Type
  ,                                       !- Humidity Indicating Day Schedule Name
  DefaultMultipliers,                     !- Dry-Bulb Temperature Range Modifier Type
  ,                                       !- Dry-Bulb Temperature Range Modifier Schedule Name
  ASHRAETau,                              !- Solar Model Indicator
  ,                                       !- Beam Solar Day Schedule Name
  ,                                       !- Diffuse Solar Day Schedule Name
  0.462,                                  !- ASHRAE Taub {dimensionless}
  2.001;                                  !- ASHRAE Taud {dimensionless}

OS:SizingPeriod:DesignDay,
  {aac3a41c-1c4f-4c4d-b9bc-748653ec8761}, !- Handle
  Buffalo Niagara Intl Ap Ann Htg 99.6% Condns DB, !- Name
  -16.3,                                  !- Maximum Dry-Bulb Temperature {C}
  0,                                      !- Daily Dry-Bulb Temperature Range {deltaC}
  -16.3,                                  !- Humidity Indicating Conditions at Maximum Dry-Bulb
  98769,                                  !- Barometric Pressure {Pa}
  5.1,                                    !- Wind Speed {m/s}
  270,                                    !- Wind Direction {deg}
  0,                                      !- Sky Clearness
  0,                                      !- Rain Indicator
  0,                                      !- Snow Indicator
  21,                                     !- Day of Month
  1,                                      !- Month
  WinterDesignDay,                        !- Day Type
  0,                                      !- Daylight Saving Time Indicator
  Wetbulb,                                !- Humidity Indicating Type
  ,                                       !- Humidity Indicating Day Schedule Name
  DefaultMultipliers,                     !- Dry-Bulb Temperature Range Modifier Type
  ,                                       !- Dry-Bulb Temperature Range Modifier Schedule Name
  ASHRAEClearSky;                         !- Solar Model Indicator

OS:SizingPeriod:DesignDay,
  {80677f31-b9b1-48b3-a511-6cc158b36330}, !- Handle
  Buffalo Niagara Intl Ap Ann Clg .4% Condns DB=>MWB, !- Name
  30.3,                                   !- Maximum Dry-Bulb Temperature {C}
  9.3,                                    !- Daily Dry-Bulb Temperature Range {deltaC}
  21.8,                                   !- Humidity Indicating Conditions at Maximum Dry-Bulb
  98769,                                  !- Barometric Pressure {Pa}
  5.7,                                    !- Wind Speed {m/s}
  240,                                    !- Wind Direction {deg}
  0,                                      !- Sky Clearness
  0,                                      !- Rain Indicator
  0,                                      !- Snow Indicator
  21,                                     !- Day of Month
  7,                                      !- Month
  SummerDesignDay,                        !- Day Type
  0,                                      !- Daylight Saving Time Indicator
  Wetbulb,                                !- Humidity Indicating Type
  ,                                       !- Humidity Indicating Day Schedule Name
  DefaultMultipliers,                     !- Dry-Bulb Temperature Range Modifier Type
  ,                                       !- Dry-Bulb Temperature Range Modifier Schedule Name
  ASHRAETau,                              !- Solar Model Indicator
  ,                                       !- Beam Solar Day Schedule Name
  ,                                       !- Diffuse Solar Day Schedule Name
  0.462,                                  !- ASHRAE Taub {dimensionless}
  2.001;                                  !- ASHRAE Taud {dimensionless}

OS:ClimateZones,
  {c6d1f2bc-a6aa-4085-afe0-2c276196aab5}, !- Handle
  ,                                       !- Active Institution
  ,                                       !- Active Year
  ASHRAE,                                 !- Climate Zone Institution Name 1
  ANSI/ASHRAE Standard 169,               !- Climate Zone Document Name 1
  2006,                                   !- Climate Zone Document Year 1
  6A;                                     !- Climate Zone Value 1

OS:Node,
  {a6a4d2a1-4d10-4888-b7ff-2f83b840b16e}, !- Handle
  Node 1,                                 !- Name
  {7fd95780-6d8a-4ca6-a810-3e86c6980b2d}, !- Inlet Port
  ;                                       !- Outlet Port

OS:Connection,
  {7fd95780-6d8a-4ca6-a810-3e86c6980b2d}, !- Handle
  {519ad95f-5efa-4365-8916-29821b3e0444}, !- Name
  ,                                       !- Source Object
  11,                                     !- Outlet Port
  {a6a4d2a1-4d10-4888-b7ff-2f83b840b16e}, !- Target Object
  2;                                      !- Inlet Port

OS:PortList,
  {b90b1a55-8dfe-4c70-88c7-0527c23b4fbf}, !- Handle
  {4b1e0048-d23c-4a72-a00a-0299f742087c}, !- Name
  ;                                       !- HVAC Component

OS:PortList,
  {ca442dd0-798d-4fd7-8c2f-6d6ce3e50329}, !- Handle
  {a4cdf2a2-00ad-4cfe-a36d-7e57b969de60}, !- Name
  ;                                       !- HVAC Component

OS:PortList,
  {14eb390c-b484-4f18-b0a8-8e66bb9b7f2f}, !- Handle
  {c3531130-d994-42f2-aff9-246ab8890f9e}, !- Name
  ;                                       !- HVAC Component

OS:Node,
  {97f0eb65-1aef-4fde-88bb-75895859a695}, !- Handle
  Node 2,                                 !- Name
  {adee1dae-25eb-4140-b7eb-1c4fb8d603ca}, !- Inlet Port
  ;                                       !- Outlet Port

OS:Connection,
  {adee1dae-25eb-4140-b7eb-1c4fb8d603ca}, !- Handle
  {1f1d4ddd-91f6-497e-a260-10fd13b36790}, !- Name
  ,                                       !- Source Object
  11,                                     !- Outlet Port
  {97f0eb65-1aef-4fde-88bb-75895859a695}, !- Target Object
  2;                                      !- Inlet Port

OS:PortList,
  {72cad429-df80-414c-ad26-8a550e5c336e}, !- Handle
  {b0c4b089-d817-41c4-bf87-f4ef2e177ae0}, !- Name
  ;                                       !- HVAC Component

OS:PortList,
  {a2de755c-0f42-4788-942f-cea6f8a23b9f}, !- Handle
  {82200000-2e44-43bb-b22d-8ffeb45dbbae}, !- Name
  ;                                       !- HVAC Component

OS:PortList,
  {511dc4e7-2f0b-4ecb-987a-7bd899ea350f}, !- Handle
  {bdfabd36-6253-49ac-9ff4-848d941c6fde}, !- Name
  ;                                       !- HVAC Component

OS:Node,
  {b5556982-44af-4a39-ac2c-8ed7ec9c20fc}, !- Handle
  Node 3,                                 !- Name
  {3c9afc65-7de5-4381-a8f7-0c1e6535a054}, !- Inlet Port
  ;                                       !- Outlet Port

OS:Connection,
  {3c9afc65-7de5-4381-a8f7-0c1e6535a054}, !- Handle
  {67cd1bb5-1ff9-46e6-8b2a-8bdda3478743}, !- Name
  ,                                       !- Source Object
  11,                                     !- Outlet Port
  {b5556982-44af-4a39-ac2c-8ed7ec9c20fc}, !- Target Object
  2;                                      !- Inlet Port

OS:PortList,
  {45f96e83-1077-4641-987a-041f00a94ad3}, !- Handle
  {e303189c-d40a-494f-be81-d8d3bf5439f1}, !- Name
  ;                                       !- HVAC Component

OS:PortList,
  {a4f9a5bc-c5f1-4603-9ec0-c061504af10c}, !- Handle
  {d302b1db-ab7b-4b1b-9f4c-f3441216927e}, !- Name
  ;                                       !- HVAC Component

OS:PortList,
  {856a19d2-de74-4308-8565-4bd88d580376}, !- Handle
  {a4665ce6-a623-4e49-8da5-bc08e776d7f0}, !- Name
  ;                                       !- HVAC Component

OS:Node,
  {7c168dc8-c0a4-4db3-92aa-7dbcfcad0c1f}, !- Handle
  Node 4,                                 !- Name
  {4d08d11b-9d66-4cde-a5d6-bd5ab3b5adf1}, !- Inlet Port
  ;                                       !- Outlet Port

OS:Connection,
  {4d08d11b-9d66-4cde-a5d6-bd5ab3b5adf1}, !- Handle
  {0f04a540-106d-4504-ab18-cc58e5ef2c36}, !- Name
  ,                                       !- Source Object
  11,                                     !- Outlet Port
  {7c168dc8-c0a4-4db3-92aa-7dbcfcad0c1f}, !- Target Object
  2;                                      !- Inlet Port

OS:PortList,
  {76cd6ec0-3df2-4ca4-bb07-06a6a97da941}, !- Handle
  {675766a9-e717-4253-8188-fdc7d42d13e7}, !- Name
  ;                                       !- HVAC Component

OS:PortList,
  {fc344203-0f11-442f-b32b-137f31c5e6c9}, !- Handle
  {6e6453bf-7cbc-4eda-8c10-2743c794115f}, !- Name
  ;                                       !- HVAC Component

OS:PortList,
  {ca5e4826-6741-4751-be8b-93d671e9b492}, !- Handle
  {281c877c-b96c-4e7b-bd16-9be587f9b642}, !- Name
  ;                                       !- HVAC Component

OS:Node,
  {e75a009c-355c-4c07-93fe-aa4511ebb580}, !- Handle
  Node 5,                                 !- Name
  {f053adaf-e756-48ce-b51f-1a0f47a95cae}, !- Inlet Port
  ;                                       !- Outlet Port

OS:Connection,
  {f053adaf-e756-48ce-b51f-1a0f47a95cae}, !- Handle
  {d34e9c9b-fe2c-43b5-81a0-9ad500d764fe}, !- Name
  ,                                       !- Source Object
  11,                                     !- Outlet Port
  {e75a009c-355c-4c07-93fe-aa4511ebb580}, !- Target Object
  2;                                      !- Inlet Port

OS:PortList,
  {9604d954-1c9d-4bd7-a035-eca87529a853}, !- Handle
  {9cd86a14-14b6-4636-a166-aa0cdad2d8af}, !- Name
  ;                                       !- HVAC Component

OS:PortList,
  {ea30ced7-141e-43da-ab32-3b22264097e2}, !- Handle
  {b4c87130-7823-4e21-be15-d0047b29e069}, !- Name
  ;                                       !- HVAC Component

OS:PortList,
  {a5cb83ef-da48-4942-af04-9d806b029f53}, !- Handle
  {334e8033-335f-48ca-b7b0-36e43412b429}, !- Name
  ;                                       !- HVAC Component

OS:Node,
  {353dfe6b-e809-4abd-ac68-a9a8578393e4}, !- Handle
  Node 6,                                 !- Name
  {dd574778-a31e-43c3-bb74-f9bf66963b04}, !- Inlet Port
  ;                                       !- Outlet Port

OS:Connection,
  {dd574778-a31e-43c3-bb74-f9bf66963b04}, !- Handle
  {f4b83056-3e30-40d3-ac4e-166bd62ee754}, !- Name
  ,                                       !- Source Object
  11,                                     !- Outlet Port
  {353dfe6b-e809-4abd-ac68-a9a8578393e4}, !- Target Object
  2;                                      !- Inlet Port

OS:PortList,
  {f14d8c57-b71d-409a-9376-e1ade96ec2e1}, !- Handle
  {35e65752-3410-4e48-8478-aa48feb3cf16}, !- Name
  ;                                       !- HVAC Component

OS:PortList,
  {5ca9ba11-8bc0-4247-9b35-137091bbd009}, !- Handle
  {6e9c36bf-dcca-48c1-9696-eea79a6f92c7}, !- Name
  ;                                       !- HVAC Component

OS:PortList,
  {957e8b4b-8cbb-4d01-a160-df6502da0181}, !- Handle
  {6ee90dd4-2b16-47ba-839d-933579d23327}, !- Name
  ;                                       !- HVAC Component

OS:Node,
  {b0e5f4bc-9dca-4cf3-8dc1-1e14aa6ffbd0}, !- Handle
  Node 7,                                 !- Name
  {e69197c5-9b88-41a2-8488-9d0c94b9c1fc}, !- Inlet Port
  ;                                       !- Outlet Port

OS:Connection,
  {e69197c5-9b88-41a2-8488-9d0c94b9c1fc}, !- Handle
  {228b6521-a384-4281-bcdd-62f05d735f6d}, !- Name
  ,                                       !- Source Object
  11,                                     !- Outlet Port
  {b0e5f4bc-9dca-4cf3-8dc1-1e14aa6ffbd0}, !- Target Object
  2;                                      !- Inlet Port

OS:PortList,
  {b814da97-4f8a-4716-9075-0ccb642d3bf0}, !- Handle
  {79c3fe48-2f7e-4451-a5f5-67e57c203fb3}, !- Name
  ;                                       !- HVAC Component

OS:PortList,
  {a35c5d8f-95e9-45fd-916b-995eb3f3b25d}, !- Handle
  {5daffb5e-7458-4abb-89e0-032940c8cbfe}, !- Name
  ;                                       !- HVAC Component

OS:PortList,
  {e6a9f575-a6de-4373-8301-15eb9c248a87}, !- Handle
  {68ca4dcd-4310-48b0-a696-3ea8a48f3ca7}, !- Name
  ;                                       !- HVAC Component

OS:Node,
  {2506aca2-ce46-46af-9f4a-71ccb98af517}, !- Handle
  Node 8,                                 !- Name
  {e6e037aa-a719-44b1-8565-b33785664d70}, !- Inlet Port
  ;                                       !- Outlet Port

OS:Connection,
  {e6e037aa-a719-44b1-8565-b33785664d70}, !- Handle
  {ee715053-89da-464c-b12c-d71c12a7478a}, !- Name
  ,                                       !- Source Object
  11,                                     !- Outlet Port
  {2506aca2-ce46-46af-9f4a-71ccb98af517}, !- Target Object
  2;                                      !- Inlet Port

OS:PortList,
  {1d04b69e-34d0-497e-afcd-6a26aa8a5447}, !- Handle
  {99c6b7e4-7ff0-4420-b3bd-9612c58a59e3}, !- Name
  ;                                       !- HVAC Component

OS:PortList,
  {8eb5f5ec-5c48-4869-9917-139b3b17ad21}, !- Handle
  {f50b6d00-1482-4256-bf08-2d905d31b32b}, !- Name
  ;                                       !- HVAC Component

OS:PortList,
  {0bff2ce9-2db7-45c7-9738-6a476496f02a}, !- Handle
  {b9dc0779-b191-4de8-a549-07a00ef7be1f}, !- Name
  ;                                       !- HVAC Component

OS:Node,
  {ba23c1e6-dc8c-4303-9d7b-33bd88bbafc0}, !- Handle
  Node 9,                                 !- Name
  {1268b4b7-ea7a-4a7d-b9da-88bc70f1243f}, !- Inlet Port
  ;                                       !- Outlet Port

OS:Connection,
  {1268b4b7-ea7a-4a7d-b9da-88bc70f1243f}, !- Handle
  {af6383e3-5e88-4d97-8ed8-94a3d66f9271}, !- Name
  ,                                       !- Source Object
  11,                                     !- Outlet Port
  {ba23c1e6-dc8c-4303-9d7b-33bd88bbafc0}, !- Target Object
  2;                                      !- Inlet Port

OS:PortList,
  {fcc1c5b0-1991-42c2-bb5f-12f04a8426f8}, !- Handle
  {a53eb445-51e8-4cb1-92d6-6059cf719076}, !- Name
  ;                                       !- HVAC Component

OS:PortList,
  {56e85b18-f2e5-4219-8922-61d6a24c041a}, !- Handle
  {63d1084b-b22f-4820-9d23-3c93bf83268d}, !- Name
  ;                                       !- HVAC Component

OS:PortList,
  {164d2a75-edf2-4343-853b-68c26e38d815}, !- Handle
  {58ae18a6-f2c8-4fd2-8766-adb30f8f37a8}, !- Name
  ;                                       !- HVAC Component

OS:Node,
  {175cac8a-a296-47d8-b678-79c53442635f}, !- Handle
  Node 10,                                !- Name
  {d3c080c1-1084-4fe8-b4fe-0fbff106b861}, !- Inlet Port
  ;                                       !- Outlet Port

OS:Connection,
  {d3c080c1-1084-4fe8-b4fe-0fbff106b861}, !- Handle
  {f7d46902-193d-4161-a27a-cab6d89e5e34}, !- Name
  ,                                       !- Source Object
  11,                                     !- Outlet Port
  {175cac8a-a296-47d8-b678-79c53442635f}, !- Target Object
  2;                                      !- Inlet Port

OS:PortList,
  {9cf6dc73-2857-48af-8e89-4a9366af1358}, !- Handle
  {f51fb0af-307d-423e-a216-a1efe95cc267}, !- Name
  ;                                       !- HVAC Component

OS:PortList,
  {c9d7d2a6-34e0-46d7-8475-cb87156538f2}, !- Handle
  {5779b512-6921-4326-bc69-2434827721a3}, !- Name
  ;                                       !- HVAC Component

OS:PortList,
  {34863fea-9f29-4b73-9509-3d8365d5e102}, !- Handle
  {a5e7c42f-488e-4ceb-815d-46ad55044d10}, !- Name
  ;                                       !- HVAC Component

OS:Node,
  {410fc8c5-309a-4a1e-90e6-dce9a5238af7}, !- Handle
  Node 11,                                !- Name
  {06d3c9ac-5839-42ea-8f1a-b3e65136bdc6}, !- Inlet Port
  ;                                       !- Outlet Port

OS:Connection,
  {06d3c9ac-5839-42ea-8f1a-b3e65136bdc6}, !- Handle
  {e619de89-d026-4448-8aea-bc427b696131}, !- Name
  ,                                       !- Source Object
  11,                                     !- Outlet Port
  {410fc8c5-309a-4a1e-90e6-dce9a5238af7}, !- Target Object
  2;                                      !- Inlet Port

OS:PortList,
  {f55fe6ba-690d-405b-acec-13aa8d7742e2}, !- Handle
  {05d2d601-cf40-455f-b003-6fabe6dc1717}, !- Name
  ;                                       !- HVAC Component

OS:PortList,
  {cf3c3fce-bbb7-4abd-88c6-9d6250143b1d}, !- Handle
  {e332da69-707f-407a-9b07-2cf8cb96ff66}, !- Name
  ;                                       !- HVAC Component

OS:PortList,
  {95f9606d-68d5-436c-b7ae-6900f18a58ff}, !- Handle
  {4fa9a91e-a78a-4278-95c1-afdaadbc5aba}, !- Name
  ;                                       !- HVAC Component

OS:Node,
  {04748ba4-1ce8-4455-986c-18e5f76f1ff2}, !- Handle
  Node 12,                                !- Name
  {4379e34c-d232-4995-9ea0-6a0eb1cf9c3d}, !- Inlet Port
  ;                                       !- Outlet Port

OS:Connection,
  {4379e34c-d232-4995-9ea0-6a0eb1cf9c3d}, !- Handle
  {745a8042-2d30-4a0b-8b19-30fa470207b8}, !- Name
  ,                                       !- Source Object
  11,                                     !- Outlet Port
  {04748ba4-1ce8-4455-986c-18e5f76f1ff2}, !- Target Object
  2;                                      !- Inlet Port

OS:PortList,
  {0b794430-3b13-442a-bb0f-fbe6cdb80aa7}, !- Handle
  {158623bf-c56a-47c2-bf1d-ed721a252b23}, !- Name
  ;                                       !- HVAC Component

OS:PortList,
  {7b191d81-0b9d-40b6-98ed-45624e086411}, !- Handle
  {be9d98ac-7a7c-45af-b92f-75182518d413}, !- Name
  ;                                       !- HVAC Component

OS:PortList,
  {b49b0e99-9d33-4b01-a785-6ed012b6568d}, !- Handle
  {575ca2ad-2fb7-473a-b18c-f059db4d22ad}, !- Name
  ;                                       !- HVAC Component

OS:Node,
  {f02ed25d-96c0-46f1-a68c-76e974c77774}, !- Handle
  Node 13,                                !- Name
  {3d18728f-9ec8-45cb-aea7-dacb946a9d4f}, !- Inlet Port
  ;                                       !- Outlet Port

OS:Connection,
  {3d18728f-9ec8-45cb-aea7-dacb946a9d4f}, !- Handle
  {182bab75-521e-4e70-bb63-e17d6ff0e5de}, !- Name
  ,                                       !- Source Object
  11,                                     !- Outlet Port
  {f02ed25d-96c0-46f1-a68c-76e974c77774}, !- Target Object
  2;                                      !- Inlet Port

OS:PortList,
  {043060b7-7b8c-4d2e-b314-b3b2f02b7767}, !- Handle
  {cdc8c587-1940-42b9-a309-f03af3829a07}, !- Name
  ;                                       !- HVAC Component

OS:PortList,
  {d67d86ed-ba4c-4206-9c9a-db02bea9e474}, !- Handle
  {590439be-5d14-44d3-8ef1-10b1b34a9ef2}, !- Name
  ;                                       !- HVAC Component

OS:PortList,
  {0c14e04a-d616-4fb1-986b-64eb59330e15}, !- Handle
  {d0d77c47-14bf-4f5e-a749-47f30b7021c8}, !- Name
  ;                                       !- HVAC Component

OS:Node,
  {6937736c-6769-4ced-a779-8a0744b8d226}, !- Handle
  Node 14,                                !- Name
  {0bf9820e-3dcf-4307-b7c8-1d57ba50e87b}, !- Inlet Port
  ;                                       !- Outlet Port

OS:Connection,
  {0bf9820e-3dcf-4307-b7c8-1d57ba50e87b}, !- Handle
  {a6642766-a936-4f9c-9599-2b9285196e7d}, !- Name
  ,                                       !- Source Object
  11,                                     !- Outlet Port
  {6937736c-6769-4ced-a779-8a0744b8d226}, !- Target Object
  2;                                      !- Inlet Port

OS:PortList,
  {9e2d260d-d810-46f4-afc1-2b289d6f82bd}, !- Handle
  {d8a6326c-f50a-4805-81a1-7a44cdf28d07}, !- Name
  ;                                       !- HVAC Component

OS:PortList,
  {4ebbc6a4-f154-49ab-b2ae-1b75cc1f5883}, !- Handle
  {c8dd96f6-f928-4d07-88d9-3bee8af3ff74}, !- Name
  ;                                       !- HVAC Component

OS:PortList,
  {6435e0e0-d242-4441-88c1-45f8b48dfcf9}, !- Handle
  {b07bfb6f-c579-4806-af83-fc616aee488b}, !- Name
  ;                                       !- HVAC Component

OS:Node,
  {33770b73-e4ec-4bfb-bb50-7351bfdb4f98}, !- Handle
  Node 15,                                !- Name
  {9df4df1e-ee56-465b-8f83-c2eb578285d7}, !- Inlet Port
  ;                                       !- Outlet Port

OS:Connection,
  {9df4df1e-ee56-465b-8f83-c2eb578285d7}, !- Handle
  {0b76be56-883e-4722-a390-956dc86f5b8a}, !- Name
  ,                                       !- Source Object
  11,                                     !- Outlet Port
  {33770b73-e4ec-4bfb-bb50-7351bfdb4f98}, !- Target Object
  2;                                      !- Inlet Port

OS:PortList,
  {38d5a6d7-8207-4dc9-ae36-02d7d0098d16}, !- Handle
  {8f4bd566-5b7e-4a90-9a03-99aed8cf4b0e}, !- Name
  ;                                       !- HVAC Component

OS:PortList,
  {8a5b7a10-8af9-478e-87b4-c1fc469b0fca}, !- Handle
  {f5964dbd-6b5d-4454-89a6-19ffa79a2fb9}, !- Name
  ;                                       !- HVAC Component

OS:PortList,
  {42545fbc-8033-49ef-b883-89601b05c488}, !- Handle
  {8b9ae764-1c38-42cc-a191-3e81ee2664ae}, !- Name
  ;                                       !- HVAC Component

OS:Node,
  {f5c5db67-1bd6-4ec5-9192-64cbdabda03d}, !- Handle
  Node 16,                                !- Name
  {43b37991-b400-4ae2-a17a-d4d4c9f819ef}, !- Inlet Port
  ;                                       !- Outlet Port

OS:Connection,
  {43b37991-b400-4ae2-a17a-d4d4c9f819ef}, !- Handle
  {4c5905ac-7512-473c-82c5-31ffd1b71c64}, !- Name
  ,                                       !- Source Object
  11,                                     !- Outlet Port
  {f5c5db67-1bd6-4ec5-9192-64cbdabda03d}, !- Target Object
  2;                                      !- Inlet Port

OS:PortList,
  {8d7cf817-e670-421f-a151-e54dc90c6b9b}, !- Handle
  {ba4a8415-7415-4ca5-931e-bdeabbeaf348}, !- Name
  ;                                       !- HVAC Component

OS:PortList,
  {18c6631b-cacc-419c-a8d0-a62dc02515e6}, !- Handle
  {ab1f470e-4e0c-4dc7-a0c2-aa62bdbe7ec8}, !- Name
  ;                                       !- HVAC Component

OS:PortList,
  {784ab220-de91-4884-8c08-0efd1798d718}, !- Handle
  {8fe77ef5-2a30-4cda-9bdc-1d2c63313115}, !- Name
  ;                                       !- HVAC Component

OS:Node,
  {ce8baaa5-4f05-43ed-bc4c-7940b7062a33}, !- Handle
  Node 17,                                !- Name
  {9749d6b7-c39b-4b5e-970a-ecd2a8a318a1}, !- Inlet Port
  ;                                       !- Outlet Port

OS:Connection,
  {9749d6b7-c39b-4b5e-970a-ecd2a8a318a1}, !- Handle
  {4fb785e9-3413-4d9b-921d-9d2cfaf06046}, !- Name
  ,                                       !- Source Object
  11,                                     !- Outlet Port
  {ce8baaa5-4f05-43ed-bc4c-7940b7062a33}, !- Target Object
  2;                                      !- Inlet Port

OS:PortList,
  {147bb6f9-9f06-4bf9-a788-69c795cdce43}, !- Handle
  {618e90f5-23ee-49e1-8691-6978a944d5a0}, !- Name
  ;                                       !- HVAC Component

OS:PortList,
  {d3e23288-18c2-4268-950e-3fb474dcfac6}, !- Handle
  {fc9c93f4-a381-4dfd-877d-9cd4baa25327}, !- Name
  ;                                       !- HVAC Component

OS:PortList,
  {7c620327-947c-4538-b5fa-f8162e08db75}, !- Handle
  {73506d95-ff92-4ca3-bd4a-5dfdec50569c}, !- Name
  ;                                       !- HVAC Component

OS:Node,
  {94a008ac-0bf2-441f-809f-48ae31a71812}, !- Handle
  Node 18,                                !- Name
  {6bc66bc3-803a-4811-bb0e-0aa3fcb4a442}, !- Inlet Port
  ;                                       !- Outlet Port

OS:Connection,
  {6bc66bc3-803a-4811-bb0e-0aa3fcb4a442}, !- Handle
  {4021a135-4424-41c1-8812-e405a66dcd2e}, !- Name
  ,                                       !- Source Object
  11,                                     !- Outlet Port
  {94a008ac-0bf2-441f-809f-48ae31a71812}, !- Target Object
  2;                                      !- Inlet Port

OS:PortList,
  {1aead3c7-51e4-48aa-9f61-cb2f2c8d3ad7}, !- Handle
  {5f80e701-f70b-465c-acb4-c2312c9d2928}, !- Name
  ;                                       !- HVAC Component

OS:PortList,
  {0eac58d4-8db5-45ee-b821-a6d0df095631}, !- Handle
  {17ceb205-8fe1-47f9-80ea-c1286f432eaf}, !- Name
  ;                                       !- HVAC Component

OS:PortList,