
OS:Version,
  {86040cab-635d-4ce8-bf64-caa837e71aa5}, !- Handle
  2.8.0;                                  !- Version Identifier

OS:Facility,
  {456de5e2-3e29-4d74-8aa4-dd05a13d20d2}; !- Handle

OS:Site,
  {6f84987d-cbf4-47ea-9be6-56da593be23f}, !- Handle
  Buffalo Niagara Intl Ap_NY_USA,         !- Name
  42.8135751575089,                       !- Latitude {deg}
  -78.8485788387214,                      !- Longitude {deg}
  -5,                                     !- Time Zone {hr}
  215,                                    !- Elevation {m}
  City;                                   !- Terrain

OS:SimulationControl,
  {60cb0a2b-3826-4e72-b167-b2f6e8d8a646}, !- Handle
  ,                                       !- Do Zone Sizing Calculation
  ,                                       !- Do System Sizing Calculation
  ,                                       !- Do Plant Sizing Calculation
  Yes,                                    !- Run Simulation for Sizing Periods
  No;                                     !- Run Simulation for Weather File Run Periods

OS:Sizing:Parameters,
  {8383d161-0109-4eec-baff-68d179f2e2b5}, !- Handle
  1.25,                                   !- Heating Sizing Factor
  1.15;                                   !- Cooling Sizing Factor

OS:Timestep,
  {cabb4b6a-b70c-420f-87bf-0e4498d95192}, !- Handle
  1;                                      !- Number of Timesteps per Hour

OS:ShadowCalculation,
  {42940e26-9728-4ee8-b38a-cb7650fd018a}, !- Handle
  20,                                     !- Calculation Frequency
  15000;                                  !- Maximum Figures in Shadow Overlap Calculations

OS:HeatBalanceAlgorithm,
  {8006c11e-aca7-4bb5-a044-76372fe8d6bf}, !- Handle
  ConductionTransferFunction,             !- Algorithm
  200;                                    !- Surface Temperature Upper Limit {C}

OS:RunPeriod,
  {40220f4a-631e-43e1-b2cb-332e1436fea1}, !- Handle
  Run Period 1,                           !- Name
  1,                                      !- Begin Month
  1,                                      !- Begin Day of Month
  12,                                     !- End Month
  31,                                     !- End Day of Month
  ,                                       !- Use Weather File Holidays and Special Days
  ,                                       !- Use Weather File Daylight Saving Period
  ,                                       !- Apply Weekend Holiday Rule
  ,                                       !- Use Weather File Rain Indicators
  ,                                       !- Use Weather File Snow Indicators
  ;                                       !- Number of Times Runperiod to be Repeated

OS:LifeCycleCost:Parameters,
  {8ae9bf95-081a-4ee2-81bb-fe03ec912cbd}, !- Handle
  ,                                       !- Analysis Type
  ,                                       !- Discounting Convention
  ,                                       !- Inflation Approach
  ,                                       !- Real Discount Rate
  ,                                       !- Nominal Discount Rate
  ,                                       !- Inflation
  ,                                       !- Base Date Month
  ,                                       !- Base Date Year
  ,                                       !- Service Date Month
  ,                                       !- Service Date Year
  ;                                       !- Length of Study Period in Years

OS:YearDescription,
  {1baa5f10-3c54-4c24-9f0b-fa671a152fbb}, !- Handle
  2018,                                   !- Calendar Year
  ,                                       !- Day of Week for Start Day
  ;                                       !- Is Leap Year

OS:WeatherFile,
  {f326cd43-27c5-4351-850e-6cef11ef3960}, !- Handle
  Buffalo Niagara Intl Ap,                !- City
  NY,                                     !- State Province Region
  USA,                                    !- Country
  TMY3,                                   !- Data Source
  725280,                                 !- WMO Number
  42.93,                                  !- Latitude {deg}
  -78.73,                                 !- Longitude {deg}
  -5,                                     !- Time Zone {hr}
  215,                                    !- Elevation {m}
  file:////Users/tkwasnik/github/urbanopt-example-geojson-reopt-project/weather/USA_NY_Buffalo-Greater.Buffalo.Intl.AP.725280_TMY3.epw, !- Url
  ;                                       !- Checksum

OS:Site:WaterMainsTemperature,
  {1c59d20d-f9ef-47dd-b7cf-ac4514c10f23}, !- Handle
  Correlation,                            !- Calculation Method
  ,                                       !- Temperature Schedule Name
  8.96666666666667,                       !- Annual Average Outdoor Air Temperature {C}
  26.2;                                   !- Maximum Difference In Monthly Average Outdoor Air Temperatures {deltaC}

OS:SizingPeriod:DesignDay,
  {b37dae54-dbc6-455d-99aa-f8e946b25e1e}, !- Handle
  Buffalo Niagara Intl Ap Ann Clg .4% Condns WB=>MDB, !- Name
  27.8,                                   !- Maximum Dry-Bulb Temperature {C}
  9.3,                                    !- Daily Dry-Bulb Temperature Range {deltaC}
  23.8,                                   !- Humidity Indicating Conditions at Maximum Dry-Bulb
  98769,                                  !- Barometric Pressure {Pa}
  5.7,                                    !- Wind Speed {m/s}
  240,                                    !- Wind Direction {deg}
  0,                                      !- Sky Clearness
  0,                                      !- Rain Indicator
  0,                                      !- Snow Indicator
  21,                                     !- Day of Month
  7,                                      !- Month
  SummerDesignDay,                        !- Day Type
  0,                                      !- Daylight Saving Time Indicator
  Wetbulb,                                !- Humidity Indicating Type
  ,                                       !- Humidity Indicating Day Schedule Name
  DefaultMultipliers,                     !- Dry-Bulb Temperature Range Modifier Type
  ,                                       !- Dry-Bulb Temperature Range Modifier Schedule Name
  ASHRAETau,                              !- Solar Model Indicator
  ,                                       !- Beam Solar Day Schedule Name
  ,                                       !- Diffuse Solar Day Schedule Name
  0.462,                                  !- ASHRAE Taub {dimensionless}
  2.001;                                  !- ASHRAE Taud {dimensionless}

OS:SizingPeriod:DesignDay,
  {47f8fd4a-3251-492e-9b24-e265f143597e}, !- Handle
  Buffalo Niagara Intl Ap Ann Clg .4% Condns DB=>MWB, !- Name
  30.3,                                   !- Maximum Dry-Bulb Temperature {C}
  9.3,                                    !- Daily Dry-Bulb Temperature Range {deltaC}
  21.8,                                   !- Humidity Indicating Conditions at Maximum Dry-Bulb
  98769,                                  !- Barometric Pressure {Pa}
  5.7,                                    !- Wind Speed {m/s}
  240,                                    !- Wind Direction {deg}
  0,                                      !- Sky Clearness
  0,                                      !- Rain Indicator
  0,                                      !- Snow Indicator
  21,                                     !- Day of Month
  7,                                      !- Month
  SummerDesignDay,                        !- Day Type
  0,                                      !- Daylight Saving Time Indicator
  Wetbulb,                                !- Humidity Indicating Type
  ,                                       !- Humidity Indicating Day Schedule Name
  DefaultMultipliers,                     !- Dry-Bulb Temperature Range Modifier Type
  ,                                       !- Dry-Bulb Temperature Range Modifier Schedule Name
  ASHRAETau,                              !- Solar Model Indicator
  ,                                       !- Beam Solar Day Schedule Name
  ,                                       !- Diffuse Solar Day Schedule Name
  0.462,                                  !- ASHRAE Taub {dimensionless}
  2.001;                                  !- ASHRAE Taud {dimensionless}

OS:SizingPeriod:DesignDay,
  {5010626a-dd83-46f9-9b0d-de7aa5d7726c}, !- Handle
  Buffalo Niagara Intl Ap Ann Htg 99.6% Condns DB, !- Name
  -16.3,                                  !- Maximum Dry-Bulb Temperature {C}
  0,                                      !- Daily Dry-Bulb Temperature Range {deltaC}
  -16.3,                                  !- Humidity Indicating Conditions at Maximum Dry-Bulb
  98769,                                  !- Barometric Pressure {Pa}
  5.1,                                    !- Wind Speed {m/s}
  270,                                    !- Wind Direction {deg}
  0,                                      !- Sky Clearness
  0,                                      !- Rain Indicator
  0,                                      !- Snow Indicator
  21,                                     !- Day of Month
  1,                                      !- Month
  WinterDesignDay,                        !- Day Type
  0,                                      !- Daylight Saving Time Indicator
  Wetbulb,                                !- Humidity Indicating Type
  ,                                       !- Humidity Indicating Day Schedule Name
  DefaultMultipliers,                     !- Dry-Bulb Temperature Range Modifier Type
  ,                                       !- Dry-Bulb Temperature Range Modifier Schedule Name
  ASHRAEClearSky;                         !- Solar Model Indicator

OS:ClimateZones,
  {649470ad-459d-4889-882b-cb99b34c988f}, !- Handle
  ,                                       !- Active Institution
  ,                                       !- Active Year
  ASHRAE,                                 !- Climate Zone Institution Name 1
  ANSI/ASHRAE Standard 169,               !- Climate Zone Document Name 1
  2006,                                   !- Climate Zone Document Year 1
  6A;                                     !- Climate Zone Value 1

OS:Node,
  {171e0196-8961-481a-a131-9c267c33420f}, !- Handle
  Node 1,                                 !- Name
  {5604fe4b-1193-4586-9117-4682e19bb5b4}, !- Inlet Port
  ;                                       !- Outlet Port

OS:Connection,
  {5604fe4b-1193-4586-9117-4682e19bb5b4}, !- Handle
  {8d72165b-bfe3-41d1-a4e3-5b27e913bf17}, !- Name
  ,                                       !- Source Object
  11,                                     !- Outlet Port
  {171e0196-8961-481a-a131-9c267c33420f}, !- Target Object
  2;                                      !- Inlet Port

OS:PortList,
  {6c6087c7-fec7-49bb-ade0-11fbfc8a76b1}, !- Handle
  {68d792f7-6ab4-40eb-9f14-5104bdb636d1}, !- Name
  ;                                       !- HVAC Component

OS:PortList,
  {46ef8d4f-f72a-44b3-b3f0-444ea3068128}, !- Handle
  {43bba634-ddb9-4c08-b028-5f3a5bb21212}, !- Name
  ;                                       !- HVAC Component

OS:PortList,
  {9638f387-6eed-4e0d-8550-b29d6cc26761}, !- Handle
  {67292a7d-74e5-479c-82a5-bb31e11dd787}, !- Name
  ;                                       !- HVAC Component

OS:Node,
  {d79808aa-6159-42c2-8541-a0106cf990a2}, !- Handle
  Node 2,                                 !- Name
  {32a44e51-f086-4062-8194-15080564803c}, !- Inlet Port
  ;                                       !- Outlet Port

OS:Connection,
  {32a44e51-f086-4062-8194-15080564803c}, !- Handle
  {eab171a1-19fa-4f2b-9c9c-d56d0a1a984d}, !- Name
  ,                                       !- Source Object
  11,                                     !- Outlet Port
  {d79808aa-6159-42c2-8541-a0106cf990a2}, !- Target Object
  2;                                      !- Inlet Port

OS:PortList,
  {bd8fd9ab-3edc-4c41-a7ae-c148b14eaea0}, !- Handle
  {5594e86a-ba73-4e02-a447-b73139bb4f2b}, !- Name
  ;                                       !- HVAC Component

OS:PortList,
  {5aa09264-311f-488b-a2ff-35476df3b200}, !- Handle
  {e8fd65b8-7536-46a0-9e1d-de15b78c3380}, !- Name
  ;                                       !- HVAC Component

OS:PortList,
  {cef16f13-52d2-4e96-b2ef-0e98b0d701a5}, !- Handle
  {d71bed25-f6e2-453a-84e8-b260fa4c6ea4}, !- Name
  ;                                       !- HVAC Component

OS:Node,
  {f61979c1-8e53-400f-9771-3308e7d035be}, !- Handle
  Node 3,                                 !- Name
  {43f5dbdb-d445-4c41-ae1c-958a59b9f127}, !- Inlet Port
  ;                                       !- Outlet Port

OS:Connection,
  {43f5dbdb-d445-4c41-ae1c-958a59b9f127}, !- Handle
  {413a0064-7cf4-42a1-9ed2-af7197f19f74}, !- Name
  ,                                       !- Source Object
  11,                                     !- Outlet Port
  {f61979c1-8e53-400f-9771-3308e7d035be}, !- Target Object
  2;                                      !- Inlet Port

OS:PortList,
  {dd2e15c6-0a58-4638-ba03-d70fc7fbbb51}, !- Handle
  {6ee46d1d-4f0e-4804-85b2-5b7c18f24a50}, !- Name
  ;                                       !- HVAC Component

OS:PortList,
  {43e8189e-0695-417d-ae41-c4c1ff21fa7e}, !- Handle
  {e2794aeb-53f4-4311-98a1-c9a89857d81e}, !- Name
  ;                                       !- HVAC Component

OS:PortList,
  {03bee3c5-257b-40bf-8b14-9859941cb2ce}, !- Handle
  {9f89829e-0eca-41c5-a876-a0d47bd06f49}, !- Name
  ;                                       !- HVAC Component

OS:Node,
  {fdd11518-66c8-40ee-9b1c-396b00c08324}, !- Handle
  Node 4,                                 !- Name
  {e296c7b7-f044-4509-9be9-15bba597b8b0}, !- Inlet Port
  ;                                       !- Outlet Port

OS:Connection,
  {e296c7b7-f044-4509-9be9-15bba597b8b0}, !- Handle
  {a8fb68fe-af2a-4612-a9b6-b2fb4f288224}, !- Name
  ,                                       !- Source Object
  11,                                     !- Outlet Port
  {fdd11518-66c8-40ee-9b1c-396b00c08324}, !- Target Object
  2;                                      !- Inlet Port

OS:PortList,
  {a27398f4-67c7-4183-9f18-203da8fe6877}, !- Handle
  {966a6d49-ff45-4c55-bdf4-6271778b5327}, !- Name
  ;                                       !- HVAC Component

OS:PortList,
  {2081cfbc-6df5-4292-9af7-7d1d68c59a5c}, !- Handle
  {d61faf63-f372-4845-9d2d-80a75da3ae76}, !- Name
  ;                                       !- HVAC Component

OS:PortList,
  {11ca68e2-ef30-4a69-a978-2ef69b25a644}, !- Handle
  {e07a200c-5d33-4b89-b3f6-99fbee06a2b1}, !- Name
  ;                                       !- HVAC Component

OS:Node,
  {07d6686a-e8a5-48eb-bb2b-90b487058de1}, !- Handle
  Node 5,                                 !- Name
  {cffdb8f6-89ee-4717-bab4-5b5445650585}, !- Inlet Port
  ;                                       !- Outlet Port

OS:Connection,
  {cffdb8f6-89ee-4717-bab4-5b5445650585}, !- Handle
  {bdd03e19-617e-48be-9624-62f24736cfdb}, !- Name
  ,                                       !- Source Object
  11,                                     !- Outlet Port
  {07d6686a-e8a5-48eb-bb2b-90b487058de1}, !- Target Object
  2;                                      !- Inlet Port

OS:PortList,
  {dab9836d-ad13-4f15-8f00-6badb1c1ded7}, !- Handle
  {ab943c2d-3717-43c4-8625-7ae095d09c67}, !- Name
  ;                                       !- HVAC Component

OS:PortList,
  {bedc813b-58b0-4c4e-90c2-54dfb0d24160}, !- Handle
  {91d30052-1037-4b47-8baf-9e0418302bf7}, !- Name
  ;                                       !- HVAC Component

OS:PortList,
  {7dd55879-6d8a-41d9-8817-661e51f92711}, !- Handle
  {38c63f8e-274a-4d8f-b21d-6d47f23f88c1}, !- Name
  ;                                       !- HVAC Component

OS:Node,
  {ebd37508-4bd8-4b16-a1d3-6d17a8d33b94}, !- Handle
  Node 6,                                 !- Name
  {27b49ac9-c8cf-4de6-b27e-77378f9d1026}, !- Inlet Port
  ;                                       !- Outlet Port

OS:Connection,
  {27b49ac9-c8cf-4de6-b27e-77378f9d1026}, !- Handle
  {3256d969-5d81-4342-8c93-e51ba6c55380}, !- Name
  ,                                       !- Source Object
  11,                                     !- Outlet Port
  {ebd37508-4bd8-4b16-a1d3-6d17a8d33b94}, !- Target Object
  2;                                      !- Inlet Port

OS:PortList,
  {5fee78be-cf47-4fbd-811b-47d9c022a914}, !- Handle
  {2cb63fc3-a03f-4be8-8a7b-f4501021dc04}, !- Name
  ;                                       !- HVAC Component

OS:PortList,
  {23c37e48-74e7-4dac-9d07-1ada9818dc9c}, !- Handle
  {3b492acd-f80a-44a0-9782-a3b1245ac49d}, !- Name
  ;                                       !- HVAC Component

OS:PortList,
  {56399de0-f39c-4861-8c9a-9738992bea5c}, !- Handle
  {3bf80ba0-8035-4d7a-8463-2f79bf95a850}, !- Name
  ;                                       !- HVAC Component

OS:Node,
  {5acfe825-7c55-45af-b38f-3cb7272e14d2}, !- Handle
  Node 7,                                 !- Name
  {aaa5f1af-451c-4029-adf2-01e90eeae5ee}, !- Inlet Port
  ;                                       !- Outlet Port

OS:Connection,
  {aaa5f1af-451c-4029-adf2-01e90eeae5ee}, !- Handle
  {18934454-1e18-495c-8fa2-98bf6f841bdf}, !- Name
  ,                                       !- Source Object
  11,                                     !- Outlet Port
  {5acfe825-7c55-45af-b38f-3cb7272e14d2}, !- Target Object
  2;                                      !- Inlet Port

OS:PortList,
  {cbd5c9ef-a683-432f-b9e0-3beb1c1b5657}, !- Handle
  {64860bbe-e157-4077-b44a-042eb646760f}, !- Name
  ;                                       !- HVAC Component

OS:PortList,
  {6abf476f-e892-4e7c-9196-6a260ad15f79}, !- Handle
  {83213f91-f520-4580-8962-43910386c6dc}, !- Name
  ;                                       !- HVAC Component

OS:PortList,
  {dbc0e478-74e6-4c6d-81aa-fd1acce2e05b}, !- Handle
  {60137d5c-9d97-4b9a-aa8c-8af5f231e889}, !- Name
  ;                                       !- HVAC Component

OS:Node,
  {2a961bcd-9933-4e90-9bf8-c687d739ddb7}, !- Handle
  Node 8,                                 !- Name
  {6b5f67ae-8763-4d5b-9261-1cd5fd95c387}, !- Inlet Port
  ;                                       !- Outlet Port

OS:Connection,
  {6b5f67ae-8763-4d5b-9261-1cd5fd95c387}, !- Handle
  {45dfa0ac-c887-429f-8a3f-a1f8fbea113e}, !- Name
  ,                                       !- Source Object
  11,                                     !- Outlet Port
  {2a961bcd-9933-4e90-9bf8-c687d739ddb7}, !- Target Object
  2;                                      !- Inlet Port

OS:PortList,
  {cc153f7b-7d0b-43ca-b6c3-eb0ba19270eb}, !- Handle
  {07703faa-5298-4852-881a-62f0b7359773}, !- Name
  ;                                       !- HVAC Component

OS:PortList,
  {569868cb-4b48-433c-87cf-b980069d0cdd}, !- Handle
  {99f374b4-2d97-4baa-b44f-60bbc227000e}, !- Name
  ;                                       !- HVAC Component

OS:PortList,
  {2358d95f-ba59-4ab7-b94b-9819735a567a}, !- Handle
  {0e69891c-c0c3-441c-b9cc-4e65e8c698b9}, !- Name
  ;                                       !- HVAC Component

OS:Node,
  {21ab56ba-32e4-4cc9-9bcb-7e6fe2029ca9}, !- Handle
  Node 9,                                 !- Name
  {dccbccf1-2f20-4f74-8589-214c329069f1}, !- Inlet Port
  ;                                       !- Outlet Port

OS:Connection,
  {dccbccf1-2f20-4f74-8589-214c329069f1}, !- Handle
  {abab9269-fd89-4092-94b0-3c3e147de49f}, !- Name
  ,                                       !- Source Object
  11,                                     !- Outlet Port
  {21ab56ba-32e4-4cc9-9bcb-7e6fe2029ca9}, !- Target Object
  2;                                      !- Inlet Port

OS:PortList,
  {0039440a-5769-4862-a9af-87cf7ddebe68}, !- Handle
  {ae047066-fd8b-4884-922e-802e956aa258}, !- Name
  ;                                       !- HVAC Component

OS:PortList,
  {80f1f0b4-07ae-4788-9fab-c795fa66c14a}, !- Handle
  {e015125f-fd17-4e5f-b648-6b8284d86b63}, !- Name
  ;                                       !- HVAC Component

OS:PortList,
  {bb5df81a-ac53-4386-98f2-ea55736b037d}, !- Handle
  {8815aef9-7cac-4243-9a03-52f172864dc2}, !- Name
  ;                                       !- HVAC Component

OS:Node,
  {22eaf8b4-811a-40aa-95ce-91c815717fa2}, !- Handle
  Node 10,                                !- Name
  {e8793f55-00d8-4cc0-abb8-82c8ef3b7211}, !- Inlet Port
  ;                                       !- Outlet Port

OS:Connection,
  {e8793f55-00d8-4cc0-abb8-82c8ef3b7211}, !- Handle
  {58c40b17-ba95-44c3-b9c0-2460c80ad2c6}, !- Name
  ,                                       !- Source Object
  11,                                     !- Outlet Port
  {22eaf8b4-811a-40aa-95ce-91c815717fa2}, !- Target Object
  2;                                      !- Inlet Port

OS:PortList,
  {b494df1b-db1b-4380-8841-7b06c78dcb7a}, !- Handle
  {c7149da1-3a24-4da2-824a-a992d8cc60da}, !- Name
  ;                                       !- HVAC Component

OS:PortList,
  {3832b809-c4f6-4961-864f-75cacda70782}, !- Handle
  {b395864e-6bf5-410b-aeb0-0e0a20e36980}, !- Name
  ;                                       !- HVAC Component

OS:PortList,
  {97c93048-b262-402d-8358-11c811632a84}, !- Handle
  {67bf0dd5-cf7e-4c7e-aa27-0186a393e86b}, !- Name
  ;                                       !- HVAC Component

OS:Node,
  {832a67dc-79f1-4f69-bbdc-bdcafc98f4eb}, !- Handle
  Node 11,                                !- Name
  {92db272b-abef-4f86-bc06-0e0a277d7c2c}, !- Inlet Port
  ;                                       !- Outlet Port

OS:Connection,
  {92db272b-abef-4f86-bc06-0e0a277d7c2c}, !- Handle
  {26b6475b-b4d5-49f3-ba54-318598eb5c98}, !- Name
  ,                                       !- Source Object
  11,                                     !- Outlet Port
  {832a67dc-79f1-4f69-bbdc-bdcafc98f4eb}, !- Target Object
  2;                                      !- Inlet Port

OS:PortList,
  {e6c03644-7d98-4457-9fde-19567937024c}, !- Handle
  {6e441726-6915-4637-8526-485a38189e6b}, !- Name
  ;                                       !- HVAC Component

OS:PortList,
  {fc72a00c-e5ee-4679-972c-081ea4b482db}, !- Handle
  {e84b989f-af5f-4b1a-9e1c-49ee8a73bb69}, !- Name
  ;                                       !- HVAC Component

OS:PortList,
  {b5d978dd-7d8f-4939-8d33-611164b05d32}, !- Handle
  {eea9f741-c5e4-4a11-a811-ff273a581599}, !- Name
  ;                                       !- HVAC Component

OS:Node,
  {4c98c0d7-f7c7-4433-b9e5-6e5125989e22}, !- Handle
  Node 12,                                !- Name
  {7c69a50c-b3f5-4423-ada7-37aeeeff25fe}, !- Inlet Port
  ;                                       !- Outlet Port

OS:Connection,
  {7c69a50c-b3f5-4423-ada7-37aeeeff25fe}, !- Handle
  {6b01b922-3d2e-49d2-a32d-840a4ed81a95}, !- Name
  ,                                       !- Source Object
  11,                                     !- Outlet Port
  {4c98c0d7-f7c7-4433-b9e5-6e5125989e22}, !- Target Object
  2;                                      !- Inlet Port

OS:PortList,
  {f04cbc87-a398-4685-b4e2-63497a0dcf47}, !- Handle
  {03168c61-bbaf-41a8-bc2a-214192f6aec1}, !- Name
  ;                                       !- HVAC Component

OS:PortList,
  {d46b78d7-6c2a-4b53-87d8-470f508f342d}, !- Handle
  {9603590d-4180-47e1-8624-3991ff3622fa}, !- Name
  ;                                       !- HVAC Component

OS:PortList,
  {3ce42ed6-1b20-43a2-b449-a896ef791255}, !- Handle
  {f2a37eba-b26c-4425-85fe-2bc3f2cae028}, !- Name
  ;                                       !- HVAC Component

OS:RunPeriodControl:DaylightSavingTime,
  {6e9a20c9-b74c-48cc-afe6-f15df3e2623d}, !- Handle
  2nd Sunday in March,                    !- Start Date
  1st Sunday in November;                 !- End Date

OS:People:Definition,
  {94765b7e-14da-4713-98b3-98451a6aec64}, !- Handle
  MidriseApartment Office People Definition, !- Name
  People/Area,                            !- Number of People Calculation Method
  ,                                       !- Number of People {people}
  0.0227118509792575,                     !- People per Space Floor Area {person/m2}
  ,                                       !- Space Floor Area per Person {m2/person}
  0.3;                                    !- Fraction Radiant

OS:Schedule:Ruleset,
  {93d2438e-d888-4abf-9816-0aab1498ff53}, !- Handle
  Clothing Schedule,                      !- Name
  {d9afa210-945d-455f-bea2-a4ca8cfb04f3}, !- Schedule Type Limits Name
  {a1c3b0e7-f6b3-43d8-8145-7de99df7e239}; !- Default Day Schedule Name

OS:Schedule:Day,
  {a1c3b0e7-f6b3-43d8-8145-7de99df7e239}, !- Handle
  Clothing Schedule Default Winter Clothes, !- Name
  {d9afa210-945d-455f-bea2-a4ca8cfb04f3}, !- Schedule Type Limits Name
  ,                                       !- Interpolate to Timestep
  24,                                     !- Hour 1
  0,                                      !- Minute 1
  1;                                      !- Value Until Time 1

OS:Schedule:Rule,
  {06cfa261-5dbb-44f9-ac0c-7740acfabe92}, !- Handle
  Schedule Rule 1,                        !- Name
  {93d2438e-d888-4abf-9816-0aab1498ff53}, !- Schedule Ruleset Name
  0,                                      !- Rule Order
  {873568a0-65f8-4830-845c-9568464e6dbd}, !- Day Schedule Name
  ,                                       !- Apply Sunday
  ,                                       !- Apply Monday
  ,                                       !- Apply Tuesday
  ,                                       !- Apply Wednesday
  ,                                       !- Apply Thursday
  ,                                       !- Apply Friday
  ,                                       !- Apply Saturday
  ,                                       !- Apply Holiday
  DateRange,                              !- Date Specification Type
  5,                                      !- Start Month
  1,                                      !- Start Day
  9,                                      !- End Month
  30;                                     !- End Day

OS:Schedule:Day,
  {873568a0-65f8-4830-845c-9568464e6dbd}, !- Handle
  Clothing Schedule Summer Clothes,       !- Name
  {d9afa210-945d-455f-bea2-a4ca8cfb04f3}, !- Schedule Type Limits Name
  ,                                       !- Interpolate to Timestep
  24,                                     !- Hour 1
  0,                                      !- Minute 1
  0.5;                                    !- Value Until Time 1

OS:ScheduleTypeLimits,
  {d9afa210-945d-455f-bea2-a4ca8cfb04f3}, !- Handle
  ClothingInsulation,                     !- Name
  0,                                      !- Lower Limit Value
  ,                                       !- Upper Limit Value
  Continuous,                             !- Numeric Type
  ClothingInsulation;                     !- Unit Type

OS:Schedule:Ruleset,
  {5e08b337-cd33-4e50-aaa3-f1423ab064fb}, !- Handle
  Air Velocity Schedule,                  !- Name
  {285bd471-b504-4cdf-9cb1-0956947b94ca}, !- Schedule Type Limits Name
  {7efab830-e890-441a-a359-6087f0fed7de}; !- Default Day Schedule Name

OS:Schedule:Day,
  {7efab830-e890-441a-a359-6087f0fed7de}, !- Handle
  Air Velocity Schedule Default,          !- Name
  {285bd471-b504-4cdf-9cb1-0956947b94ca}, !- Schedule Type Limits Name
  ,                                       !- Interpolate to Timestep
  24,                                     !- Hour 1
  0,                                      !- Minute 1
  0.2;                                    !- Value Until Time 1

OS:ScheduleTypeLimits,
  {285bd471-b504-4cdf-9cb1-0956947b94ca}, !- Handle
  Velocity,                               !- Name
  0,                                      !- Lower Limit Value
  ,                                       !- Upper Limit Value
  Continuous,                             !- Numeric Type
  Velocity;                               !- Unit Type

OS:Schedule:Ruleset,
  {d23c7c2e-92a1-412b-b83b-fb3ecff3f075}, !- Handle
  Work Efficiency Schedule,               !- Name
  {5866f145-f397-410c-8ca5-dbc02d2a98be}, !- Schedule Type Limits Name
  {628d4f93-d224-47e7-8ea0-762934b2171b}; !- Default Day Schedule Name

OS:Schedule:Day,
  {628d4f93-d224-47e7-8ea0-762934b2171b}, !- Handle
  Work Efficiency Schedule Default,       !- Name
  {5866f145-f397-410c-8ca5-dbc02d2a98be}, !- Schedule Type Limits Name
  ,                                       !- Interpolate to Timestep
  24,                                     !- Hour 1
  0,                                      !- Minute 1
  0;                                      !- Value Until Time 1

OS:ScheduleTypeLimits,
  {5866f145-f397-410c-8ca5-dbc02d2a98be}, !- Handle
  Fractional,                             !- Name
  0,                                      !- Lower Limit Value
  1,                                      !- Upper Limit Value
  Continuous;                             !- Numeric Type

OS:Lights:Definition,
  {1307252d-060a-4a5e-9105-e125d2a0b1d1}, !- Handle
  MidriseApartment Office Lights Definition, !- Name
  Watts/Area,                             !- Design Level Calculation Method
  ,                                       !- Lighting Level {W}
  11.8403014583807,                       !- Watts per Space Floor Area {W/m2}
  ,                                       !- Watts per Person {W/person}
  0.6,                                    !- Fraction Radiant
  0.2;                                    !- Fraction Visible

OS:AdditionalProperties,
  {2c63260a-4129-46b9-8112-95c5c1109757}, !- Handle
  {1307252d-060a-4a5e-9105-e125d2a0b1d1}, !- Object Name
  lpd_fraction_linear_fluorescent,        !- Feature Name 1
  Double,                                 !- Feature Data Type 1
  1;                                      !- Feature Value 1

OS:ElectricEquipment:Definition,
  {3a3c568e-3271-4040-a090-3419271a84b1}, !- Handle
  MidriseApartment Office Elec Equip Definition, !- Name
  Watts/Area,                             !- Design Level Calculation Method