
OS:Version,
  {a1d3f01d-0780-4ac7-8cf0-39a8d0841865}, !- Handle
  2.8.0;                                  !- Version Identifier

OS:Facility,
  {c545b6b3-f7ac-407b-be9f-bbcf2fa43e1d}; !- Handle

OS:Site,
  {dbed98d1-0da0-477f-8b02-ba00d10849f7}, !- Handle
  Buffalo Niagara Intl Ap_NY_USA,         !- Name
  42.8134271966741,                       !- Latitude {deg}
  -78.8491695046689,                      !- Longitude {deg}
  -5,                                     !- Time Zone {hr}
  215,                                    !- Elevation {m}
  City;                                   !- Terrain

OS:SimulationControl,
  {a5e1990f-8cd0-4bfb-a53e-c9d335ad9004}, !- Handle
  ,                                       !- Do Zone Sizing Calculation
  ,                                       !- Do System Sizing Calculation
  ,                                       !- Do Plant Sizing Calculation
  Yes,                                    !- Run Simulation for Sizing Periods
  No;                                     !- Run Simulation for Weather File Run Periods

OS:Sizing:Parameters,
  {16ba18bb-78fd-4dbd-9997-c6f2178f3cba}, !- Handle
  1.25,                                   !- Heating Sizing Factor
  1.15;                                   !- Cooling Sizing Factor

OS:Timestep,
  {7765d022-6b4f-47ec-b1eb-e37cae4ca3f6}, !- Handle
  1;                                      !- Number of Timesteps per Hour

OS:ShadowCalculation,
  {f5f69c1a-28af-4bad-a2a2-964d05a6fef6}, !- Handle
  20,                                     !- Calculation Frequency
  15000;                                  !- Maximum Figures in Shadow Overlap Calculations

OS:HeatBalanceAlgorithm,
  {68bd50fc-4438-461c-ba81-c97fed3743e2}, !- Handle
  ConductionTransferFunction,             !- Algorithm
  200;                                    !- Surface Temperature Upper Limit {C}

OS:RunPeriod,
  {9f45f05c-8590-4b4e-bbcd-47ffc0e39b52}, !- Handle
  Run Period 1,                           !- Name
  1,                                      !- Begin Month
  1,                                      !- Begin Day of Month
  12,                                     !- End Month
  31,                                     !- End Day of Month
  ,                                       !- Use Weather File Holidays and Special Days
  ,                                       !- Use Weather File Daylight Saving Period
  ,                                       !- Apply Weekend Holiday Rule
  ,                                       !- Use Weather File Rain Indicators
  ,                                       !- Use Weather File Snow Indicators
  ;                                       !- Number of Times Runperiod to be Repeated

OS:LifeCycleCost:Parameters,
  {da90a322-c205-4aae-abdd-9a93045bdd77}, !- Handle
  ,                                       !- Analysis Type
  ,                                       !- Discounting Convention
  ,                                       !- Inflation Approach
  ,                                       !- Real Discount Rate
  ,                                       !- Nominal Discount Rate
  ,                                       !- Inflation
  ,                                       !- Base Date Month
  ,                                       !- Base Date Year
  ,                                       !- Service Date Month
  ,                                       !- Service Date Year
  ;                                       !- Length of Study Period in Years

OS:YearDescription,
  {2f496b6d-f50a-4047-b571-3b4e117aba9b}, !- Handle
  2018,                                   !- Calendar Year
  ,                                       !- Day of Week for Start Day
  ;                                       !- Is Leap Year

OS:WeatherFile,
  {c7b7e39b-51af-4953-9787-64869d1b3829}, !- Handle
  Buffalo Niagara Intl Ap,                !- City
  NY,                                     !- State Province Region
  USA,                                    !- Country
  TMY3,                                   !- Data Source
  725280,                                 !- WMO Number
  42.93,                                  !- Latitude {deg}
  -78.73,                                 !- Longitude {deg}
  -5,                                     !- Time Zone {hr}
  215,                                    !- Elevation {m}
  file:////Users/tkwasnik/github/urbanopt-example-geojson-reopt-project/weather/USA_NY_Buffalo-Greater.Buffalo.Intl.AP.725280_TMY3.epw, !- Url
  ;                                       !- Checksum

OS:Site:WaterMainsTemperature,
  {2ccd883b-beed-4f8c-b487-4b13624bc407}, !- Handle
  Correlation,                            !- Calculation Method
  ,                                       !- Temperature Schedule Name
  8.96666666666667,                       !- Annual Average Outdoor Air Temperature {C}
  26.2;                                   !- Maximum Difference In Monthly Average Outdoor Air Temperatures {deltaC}

OS:SizingPeriod:DesignDay,
  {298b0974-5046-46ee-8f03-fbb5be02fd42}, !- Handle
  Buffalo Niagara Intl Ap Ann Clg .4% Condns WB=>MDB, !- Name
  27.8,                                   !- Maximum Dry-Bulb Temperature {C}
  9.3,                                    !- Daily Dry-Bulb Temperature Range {deltaC}
  23.8,                                   !- Humidity Indicating Conditions at Maximum Dry-Bulb
  98769,                                  !- Barometric Pressure {Pa}
  5.7,                                    !- Wind Speed {m/s}
  240,                                    !- Wind Direction {deg}
  0,                                      !- Sky Clearness
  0,                                      !- Rain Indicator
  0,                                      !- Snow Indicator
  21,                                     !- Day of Month
  7,                                      !- Month
  SummerDesignDay,                        !- Day Type
  0,                                      !- Daylight Saving Time Indicator
  Wetbulb,                                !- Humidity Indicating Type
  ,                                       !- Humidity Indicating Day Schedule Name
  DefaultMultipliers,                     !- Dry-Bulb Temperature Range Modifier Type
  ,                                       !- Dry-Bulb Temperature Range Modifier Schedule Name
  ASHRAETau,                              !- Solar Model Indicator
  ,                                       !- Beam Solar Day Schedule Name
  ,                                       !- Diffuse Solar Day Schedule Name
  0.462,                                  !- ASHRAE Taub {dimensionless}
  2.001;                                  !- ASHRAE Taud {dimensionless}

OS:SizingPeriod:DesignDay,
  {19d2c45a-8750-4aa0-9e39-1407b9e207a8}, !- Handle
  Buffalo Niagara Intl Ap Ann Clg .4% Condns DB=>MWB, !- Name
  30.3,                                   !- Maximum Dry-Bulb Temperature {C}
  9.3,                                    !- Daily Dry-Bulb Temperature Range {deltaC}
  21.8,                                   !- Humidity Indicating Conditions at Maximum Dry-Bulb
  98769,                                  !- Barometric Pressure {Pa}
  5.7,                                    !- Wind Speed {m/s}
  240,                                    !- Wind Direction {deg}
  0,                                      !- Sky Clearness
  0,                                      !- Rain Indicator
  0,                                      !- Snow Indicator
  21,                                     !- Day of Month
  7,                                      !- Month
  SummerDesignDay,                        !- Day Type
  0,                                      !- Daylight Saving Time Indicator
  Wetbulb,                                !- Humidity Indicating Type
  ,                                       !- Humidity Indicating Day Schedule Name
  DefaultMultipliers,                     !- Dry-Bulb Temperature Range Modifier Type
  ,                                       !- Dry-Bulb Temperature Range Modifier Schedule Name
  ASHRAETau,                              !- Solar Model Indicator
  ,                                       !- Beam Solar Day Schedule Name
  ,                                       !- Diffuse Solar Day Schedule Name
  0.462,                                  !- ASHRAE Taub {dimensionless}
  2.001;                                  !- ASHRAE Taud {dimensionless}

OS:SizingPeriod:DesignDay,
  {e4c0fdf9-e119-47b8-b833-b959d98a4604}, !- Handle
  Buffalo Niagara Intl Ap Ann Htg 99.6% Condns DB, !- Name
  -16.3,                                  !- Maximum Dry-Bulb Temperature {C}
  0,                                      !- Daily Dry-Bulb Temperature Range {deltaC}
  -16.3,                                  !- Humidity Indicating Conditions at Maximum Dry-Bulb
  98769,                                  !- Barometric Pressure {Pa}
  5.1,                                    !- Wind Speed {m/s}
  270,                                    !- Wind Direction {deg}
  0,                                      !- Sky Clearness
  0,                                      !- Rain Indicator
  0,                                      !- Snow Indicator
  21,                                     !- Day of Month
  1,                                      !- Month
  WinterDesignDay,                        !- Day Type
  0,                                      !- Daylight Saving Time Indicator
  Wetbulb,                                !- Humidity Indicating Type
  ,                                       !- Humidity Indicating Day Schedule Name
  DefaultMultipliers,                     !- Dry-Bulb Temperature Range Modifier Type
  ,                                       !- Dry-Bulb Temperature Range Modifier Schedule Name
  ASHRAEClearSky;                         !- Solar Model Indicator

OS:ClimateZones,
  {de3d0d38-2cd4-42f1-b9a9-2fcc66a55888}, !- Handle
  ,                                       !- Active Institution
  ,                                       !- Active Year
  ASHRAE,                                 !- Climate Zone Institution Name 1
  ANSI/ASHRAE Standard 169,               !- Climate Zone Document Name 1
  2006,                                   !- Climate Zone Document Year 1
  6A;                                     !- Climate Zone Value 1

OS:Node,
  {7881c924-1210-422f-b62c-b0f51c7784a3}, !- Handle
  Node 1,                                 !- Name
  {d8fd3569-5e4f-4516-b438-7b7fdc75e4d9}, !- Inlet Port
  ;                                       !- Outlet Port

OS:Connection,
  {d8fd3569-5e4f-4516-b438-7b7fdc75e4d9}, !- Handle
  {ed91622c-6c0d-4ed1-b0a6-ea9c37686800}, !- Name
  ,                                       !- Source Object
  11,                                     !- Outlet Port
  {7881c924-1210-422f-b62c-b0f51c7784a3}, !- Target Object
  2;                                      !- Inlet Port

OS:PortList,
  {56201d22-bb42-4c14-bf4b-2a4e9fb367ca}, !- Handle
  {3572ebf0-1508-4baa-a266-614584f1ed0d}, !- Name
  ;                                       !- HVAC Component

OS:PortList,
  {efb8a452-62f5-4de4-80ec-e7e671bfb131}, !- Handle
  {0fb6f425-d648-4da1-a74f-956c9a7924c7}, !- Name
  ;                                       !- HVAC Component

OS:PortList,
  {23241605-549e-4e75-8a1a-d0c99e698061}, !- Handle
  {0254dbbb-7284-4124-a6f3-1a0cab20aba1}, !- Name
  ;                                       !- HVAC Component

OS:Node,
  {61620716-61da-482c-b0e1-17a8b6919762}, !- Handle
  Node 2,                                 !- Name
  {3820292b-f76a-4939-844f-2b5968027adf}, !- Inlet Port
  ;                                       !- Outlet Port

OS:Connection,
  {3820292b-f76a-4939-844f-2b5968027adf}, !- Handle
  {fb3252cc-d2bd-4939-8524-64bbb9767044}, !- Name
  ,                                       !- Source Object
  11,                                     !- Outlet Port
  {61620716-61da-482c-b0e1-17a8b6919762}, !- Target Object
  2;                                      !- Inlet Port

OS:PortList,
  {1a3445c1-fa43-49d8-aeab-93b5e353b5ee}, !- Handle
  {706cb185-576c-41a1-99ce-9bc10ab3aaaa}, !- Name
  ;                                       !- HVAC Component

OS:PortList,
  {cbb9cdb9-0fe2-4f11-8d3e-9f7126ddc08d}, !- Handle
  {7af338f9-5aa1-423b-9aab-d8e622a9f04b}, !- Name
  ;                                       !- HVAC Component

OS:PortList,
  {f38296b8-22b8-4ff3-9b39-82600e5e158f}, !- Handle
  {fd4d8670-83ee-4b07-9bce-523a997dfd09}, !- Name
  ;                                       !- HVAC Component

OS:Node,
  {e3a2f681-8c2d-4a33-ab1c-b2a9085db001}, !- Handle
  Node 3,                                 !- Name
  {00099f5e-dfd6-4443-9e36-f1b5d7ce69a6}, !- Inlet Port
  ;                                       !- Outlet Port

OS:Connection,
  {00099f5e-dfd6-4443-9e36-f1b5d7ce69a6}, !- Handle
  {9fedca47-0b7e-45e3-90f8-f822c48737d0}, !- Name
  ,                                       !- Source Object
  11,                                     !- Outlet Port
  {e3a2f681-8c2d-4a33-ab1c-b2a9085db001}, !- Target Object
  2;                                      !- Inlet Port

OS:PortList,
  {4043d57b-52e0-458f-8e22-e0bf609922f9}, !- Handle
  {60929492-2888-4a5d-bb47-e6d0a677b2be}, !- Name
  ;                                       !- HVAC Component

OS:PortList,
  {51f94c48-f94d-4134-82d8-6c82556bb110}, !- Handle
  {87f93981-cc45-453d-b215-59bae2ba4791}, !- Name
  ;                                       !- HVAC Component

OS:PortList,
  {59a285f9-4200-4274-94b1-22b56b2fda37}, !- Handle
  {98622399-803c-4817-94b3-67eca4ab8e02}, !- Name
  ;                                       !- HVAC Component

OS:Node,
  {9d1aaeff-d156-494a-b1ba-0abb0b590e97}, !- Handle
  Node 4,                                 !- Name
  {de359951-2e05-4b33-a054-e34c6717c5d3}, !- Inlet Port
  ;                                       !- Outlet Port

OS:Connection,
  {de359951-2e05-4b33-a054-e34c6717c5d3}, !- Handle
  {0d7f3fee-5cb3-425e-8aa6-941a01a89e18}, !- Name
  ,                                       !- Source Object
  11,                                     !- Outlet Port
  {9d1aaeff-d156-494a-b1ba-0abb0b590e97}, !- Target Object
  2;                                      !- Inlet Port

OS:PortList,
  {b66e1fc7-9817-4f5c-9e59-ddde771dd7fd}, !- Handle
  {61563ad9-5bed-4cca-9d4a-9cb77607190a}, !- Name
  ;                                       !- HVAC Component

OS:PortList,
  {7d056141-517a-4836-a5cd-6c727465ae5f}, !- Handle
  {719694d7-2e94-4f12-91f9-bc711ccb60f3}, !- Name
  ;                                       !- HVAC Component

OS:PortList,
  {26e4beba-7b67-4027-9aad-db7ad2ed4737}, !- Handle
  {f27aa4b6-fb0f-442e-9429-148425991ff8}, !- Name
  ;                                       !- HVAC Component

OS:Node,
  {b28aea73-6258-4524-a960-368308d05f9a}, !- Handle
  Node 5,                                 !- Name
  {b6adb08b-1223-42b7-a565-d81f5ab8a82c}, !- Inlet Port
  ;                                       !- Outlet Port

OS:Connection,
  {b6adb08b-1223-42b7-a565-d81f5ab8a82c}, !- Handle
  {33b50612-12cf-4dbc-839e-d6a114de01e3}, !- Name
  ,                                       !- Source Object
  11,                                     !- Outlet Port
  {b28aea73-6258-4524-a960-368308d05f9a}, !- Target Object
  2;                                      !- Inlet Port

OS:PortList,
  {942cebe3-2db3-41e4-bf7e-c457291bc90d}, !- Handle
  {6df9c124-9900-4119-84a6-1e93b80e230b}, !- Name
  ;                                       !- HVAC Component

OS:PortList,
  {849b536e-88e4-4407-bd02-d37062d2dbbd}, !- Handle
  {98411b05-d587-4a25-855f-8d7ca0848146}, !- Name
  ;                                       !- HVAC Component

OS:PortList,
  {68a8b3d0-7740-410c-8409-80db12c79325}, !- Handle
  {be22fca9-6bd0-4822-9a18-8d5249cdeeb3}, !- Name
  ;                                       !- HVAC Component

OS:Node,
  {cde3311e-7a25-4061-abab-859d35a6750f}, !- Handle
  Node 6,                                 !- Name
  {1a55cef7-fe32-4245-a5e5-fc1862688c8a}, !- Inlet Port
  ;                                       !- Outlet Port

OS:Connection,
  {1a55cef7-fe32-4245-a5e5-fc1862688c8a}, !- Handle
  {554d1cb2-d2ba-4e12-919a-aa3604fcf8eb}, !- Name
  ,                                       !- Source Object
  11,                                     !- Outlet Port
  {cde3311e-7a25-4061-abab-859d35a6750f}, !- Target Object
  2;                                      !- Inlet Port

OS:PortList,
  {c00a2c32-498a-4c2f-9681-84aa00ec8253}, !- Handle
  {d062d67f-00ee-41cd-956c-53f62b7aad49}, !- Name
  ;                                       !- HVAC Component

OS:PortList,
  {3a1afd9f-f6f1-4e14-bb4c-31ce683aa524}, !- Handle
  {eea943b1-b3fa-4c50-8df1-0b7cfb439799}, !- Name
  ;                                       !- HVAC Component

OS:PortList,
  {7eb2ab84-6358-48fd-9638-a589fa984aa3}, !- Handle
  {bec69979-2667-4e98-b99d-676feb072362}, !- Name
  ;                                       !- HVAC Component

OS:Node,
  {fc13911a-102e-49f6-84a5-3230a17c4e1e}, !- Handle
  Node 7,                                 !- Name
  {ff84e59c-500e-4dfb-9e82-f90dcf26f4c2}, !- Inlet Port
  ;                                       !- Outlet Port

OS:Connection,
  {ff84e59c-500e-4dfb-9e82-f90dcf26f4c2}, !- Handle
  {1c1af720-e060-4e19-8675-14449bf0e3d9}, !- Name
  ,                                       !- Source Object
  11,                                     !- Outlet Port
  {fc13911a-102e-49f6-84a5-3230a17c4e1e}, !- Target Object
  2;                                      !- Inlet Port

OS:PortList,
  {7102e176-1c37-4f78-8c89-7d20137cef8b}, !- Handle
  {95cd864c-d5a7-48cd-9a6d-ea05ecb88279}, !- Name
  ;                                       !- HVAC Component

OS:PortList,
  {75dae50c-ec1c-48d0-8b01-97e4c19b1e34}, !- Handle
  {17d98aa6-8f86-494b-817f-0e26d6be8da6}, !- Name
  ;                                       !- HVAC Component

OS:PortList,
  {cef7d0b8-7e4b-4bde-9ea3-dc52768b2f41}, !- Handle
  {01132db3-3300-4a0c-80f2-efe6d15703fa}, !- Name
  ;                                       !- HVAC Component

OS:Node,
  {0dfe5b17-4f64-4137-9836-a5177efacbc5}, !- Handle
  Node 8,                                 !- Name
  {0e183ef1-944c-4bb2-9acc-6aafe832a835}, !- Inlet Port
  ;                                       !- Outlet Port

OS:Connection,
  {0e183ef1-944c-4bb2-9acc-6aafe832a835}, !- Handle
  {9cc8fe9a-e4d1-4a9f-9c76-7e1f421e66ad}, !- Name
  ,                                       !- Source Object
  11,                                     !- Outlet Port
  {0dfe5b17-4f64-4137-9836-a5177efacbc5}, !- Target Object
  2;                                      !- Inlet Port

OS:PortList,
  {0b2565d5-852f-4cad-be8a-294dc0e4e427}, !- Handle
  {cbe0bd54-80c6-43e2-8d37-ac6f05c717f5}, !- Name
  ;                                       !- HVAC Component

OS:PortList,
  {edffcdd3-1d82-4b58-9743-20a34010c7fe}, !- Handle
  {67c0b83f-f378-42bc-966c-53637d9c87bf}, !- Name
  ;                                       !- HVAC Component

OS:PortList,
  {2239ddcc-de8b-429a-862a-8562fd8b14fa}, !- Handle
  {d20fe4d6-b1a3-49e0-9639-5697a39d6fc3}, !- Name
  ;                                       !- HVAC Component

OS:Node,
  {dfe167cd-218e-47c3-b329-0db63ba4b8af}, !- Handle
  Node 9,                                 !- Name
  {923d9507-b08a-40b1-a78e-b3d8e9ef8c89}, !- Inlet Port
  ;                                       !- Outlet Port

OS:Connection,
  {923d9507-b08a-40b1-a78e-b3d8e9ef8c89}, !- Handle
  {5cc1dff3-1e1a-4002-93e5-cb92b0998289}, !- Name
  ,                                       !- Source Object
  11,                                     !- Outlet Port
  {dfe167cd-218e-47c3-b329-0db63ba4b8af}, !- Target Object
  2;                                      !- Inlet Port

OS:PortList,
  {2082b3e0-3cfd-4dd9-8989-77457924123a}, !- Handle
  {89d809e0-5b73-4856-9c6f-01572e1d3b79}, !- Name
  ;                                       !- HVAC Component

OS:PortList,
  {3b1b65af-c7e3-4923-8cdb-8ad0ecc14f97}, !- Handle
  {f413d2f5-74a8-490f-b122-f7298e332fa5}, !- Name
  ;                                       !- HVAC Component

OS:PortList,
  {f4a58968-9a90-41e2-849e-c1f351273040}, !- Handle
  {f9a3b56e-5d9f-43d2-9c9e-e02aaf164693}, !- Name
  ;                                       !- HVAC Component

OS:Node,
  {79eb819d-fe2c-4a84-a2a7-3a31fc1ca338}, !- Handle
  Node 10,                                !- Name
  {f6797455-fa11-4cf8-a578-ab2d5dbae670}, !- Inlet Port
  ;                                       !- Outlet Port

OS:Connection,
  {f6797455-fa11-4cf8-a578-ab2d5dbae670}, !- Handle
  {8e3cb845-2c38-4991-afd0-c567259da405}, !- Name
  ,                                       !- Source Object
  11,                                     !- Outlet Port
  {79eb819d-fe2c-4a84-a2a7-3a31fc1ca338}, !- Target Object
  2;                                      !- Inlet Port

OS:PortList,
  {b4e4d24a-9c60-4221-a694-9a1c7e735ca9}, !- Handle
  {77fac73e-9b65-415f-9a8a-2e114aa78421}, !- Name
  ;                                       !- HVAC Component

OS:PortList,
  {889f712e-1ce4-4b37-96c1-0818647d77e6}, !- Handle
  {2ba87cc3-21a9-4d82-bfe3-9657664a5845}, !- Name
  ;                                       !- HVAC Component

OS:PortList,
  {5fb7df15-342b-4bff-9482-b109527826f5}, !- Handle
  {b57ab0e8-1db1-40ac-b703-5946b04f0a37}, !- Name
  ;                                       !- HVAC Component

OS:Node,
  {0e363e80-1e9c-49a3-83b5-4eb39ccc1f71}, !- Handle
  Node 11,                                !- Name
  {f44f82bb-49da-4d7d-aa43-1553b44db048}, !- Inlet Port
  ;                                       !- Outlet Port

OS:Connection,
  {f44f82bb-49da-4d7d-aa43-1553b44db048}, !- Handle
  {1ee2aded-05a0-4f91-ba0d-5b0d08e2dbf7}, !- Name
  ,                                       !- Source Object
  11,                                     !- Outlet Port
  {0e363e80-1e9c-49a3-83b5-4eb39ccc1f71}, !- Target Object
  2;                                      !- Inlet Port

OS:PortList,
  {84d9c00a-0606-4541-aaf4-d050b5f0ecfa}, !- Handle
  {4a6dd83e-22c1-49bd-ba48-09ed6fa92aba}, !- Name
  ;                                       !- HVAC Component

OS:PortList,
  {7c826c46-655b-42fa-b4ed-537355f00b96}, !- Handle
  {98528cd8-871d-4335-8e6f-7a4398425e4e}, !- Name
  ;                                       !- HVAC Component

OS:PortList,
  {6ec7406f-4d0b-4e53-af47-9b132f4c7b48}, !- Handle
  {019d4cb8-6c09-4c0b-ae5a-38d159d7eedb}, !- Name
  ;                                       !- HVAC Component

OS:Node,
  {3bd09956-9f1e-4571-b895-d500b453f0cf}, !- Handle
  Node 12,                                !- Name
  {b724b43a-7449-4d3a-a2ea-530776a72606}, !- Inlet Port
  ;                                       !- Outlet Port

OS:Connection,
  {b724b43a-7449-4d3a-a2ea-530776a72606}, !- Handle
  {7bf5563b-8e12-4c2b-8e97-0098d29d338a}, !- Name
  ,                                       !- Source Object
  11,                                     !- Outlet Port
  {3bd09956-9f1e-4571-b895-d500b453f0cf}, !- Target Object
  2;                                      !- Inlet Port

OS:PortList,
  {8252d298-2372-415b-9366-c9dbe52c192d}, !- Handle
  {a359f336-f266-46df-be5b-c9b1560ac997}, !- Name
  ;                                       !- HVAC Component

OS:PortList,
  {11b6e499-6669-47b7-bbca-a974d9a29edb}, !- Handle
  {02e37994-36f7-4581-9178-abaab677642b}, !- Name
  ;                                       !- HVAC Component

OS:PortList,
  {89f990f0-5a5a-47f5-aaeb-ef5dcb440cb8}, !- Handle
  {4b00b48b-f9fc-4b0e-b952-c954e14f290b}, !- Name
  ;                                       !- HVAC Component

OS:Node,
  {f9675a5d-ac21-41b2-9ace-2f8858e571bb}, !- Handle
  Node 13,                                !- Name
  {ea9ad9c5-c04f-4559-a7b5-cf334e7dc3b5}, !- Inlet Port
  ;                                       !- Outlet Port

OS:Connection,
  {ea9ad9c5-c04f-4559-a7b5-cf334e7dc3b5}, !- Handle
  {23db8710-f17d-4e97-90d9-52977f7e391c}, !- Name
  ,                                       !- Source Object
  11,                                     !- Outlet Port
  {f9675a5d-ac21-41b2-9ace-2f8858e571bb}, !- Target Object
  2;                                      !- Inlet Port

OS:PortList,
  {9d7714ea-175c-4d59-a9a1-0b765c237379}, !- Handle
  {765a8b65-acb5-4675-9833-74632976133e}, !- Name
  ;                                       !- HVAC Component

OS:PortList,
  {f50e5bcf-bff7-48a5-b3df-47d7a6e0ffa4}, !- Handle
  {0a9efb8d-ee6b-4b04-a037-1a4782669e4d}, !- Name
  ;                                       !- HVAC Component

OS:PortList,
  {2a8c33f4-48cc-4666-b4ab-be95768b7ca9}, !- Handle
  {7cb059cd-ee63-4669-8bbd-9ec5b8579002}, !- Name
  ;                                       !- HVAC Component

OS:Node,
  {03211ec9-5648-4742-8561-424110bc4dc3}, !- Handle
  Node 14,                                !- Name
  {d91978ab-1a95-4cc7-853c-9c1b2de092b3}, !- Inlet Port
  ;                                       !- Outlet Port

OS:Connection,
  {d91978ab-1a95-4cc7-853c-9c1b2de092b3}, !- Handle
  {32c7d2cc-d30d-4783-baed-e32459700bb9}, !- Name
  ,                                       !- Source Object
  11,                                     !- Outlet Port
  {03211ec9-5648-4742-8561-424110bc4dc3}, !- Target Object
  2;                                      !- Inlet Port

OS:PortList,
  {53bbd6fd-cb55-4c45-bdbf-ba2f2a3cf19e}, !- Handle
  {912d0e0b-647e-470e-8243-af359b6df02b}, !- Name
  ;                                       !- HVAC Component

OS:PortList,
  {46bf1821-f2ec-49b9-9de8-dc64b437ebc3}, !- Handle
  {53ab0f22-806d-42bd-9d38-b7b6979bd495}, !- Name
  ;                                       !- HVAC Component

OS:PortList,
  {eea1a4e7-8134-42ee-a668-abc1614dd90d}, !- Handle
  {dbdeb4ed-550d-42ec-b06b-1ddb13f6a2e6}, !- Name
  ;                                       !- HVAC Component

OS:Node,
  {c5d20169-a69c-4969-aaca-708c44c10937}, !- Handle
  Node 15,                                !- Name
  {a16883a8-b9a1-4922-b08e-d77fbd24c1b1}, !- Inlet Port
  ;                                       !- Outlet Port

OS:Connection,
  {a16883a8-b9a1-4922-b08e-d77fbd24c1b1}, !- Handle
  {67069d9e-ba17-457d-bb1f-d42c9ac5eef3}, !- Name
  ,                                       !- Source Object
  11,                                     !- Outlet Port
  {c5d20169-a69c-4969-aaca-708c44c10937}, !- Target Object
  2;                                      !- Inlet Port

OS:PortList,
  {40d6dddd-681a-41e6-9fc2-22d668a91c78}, !- Handle
  {186764be-0038-4a6d-967a-d664e8d6e6c5}, !- Name
  ;                                       !- HVAC Component

OS:PortList,
  {0076a833-3192-452d-a6a5-23b9f2e4ab35}, !- Handle
  {6d089e58-7ceb-48ec-8c64-985a26d22932}, !- Name
  ;                                       !- HVAC Component

OS:PortList,
  {20687568-4f08-4a0d-8cfa-10fc02db49ec}, !- Handle
  {237a9319-6425-403f-9400-7c7ff3daebed}, !- Name
  ;                                       !- HVAC Component

OS:Node,
  {197f2398-73a6-4e09-b0ad-7fe25457edc8}, !- Handle
  Node 16,                                !- Name
  {2dc5ed91-bac5-4425-9617-3254f7a19ec5}, !- Inlet Port
  ;                                       !- Outlet Port

OS:Connection,
  {2dc5ed91-bac5-4425-9617-3254f7a19ec5}, !- Handle
  {36f69552-5bca-4bd2-b11b-48d66feda0bf}, !- Name
  ,                                       !- Source Object
  11,                                     !- Outlet Port
  {197f2398-73a6-4e09-b0ad-7fe25457edc8}, !- Target Object
  2;                                      !- Inlet Port

OS:PortList,
  {a6e93194-8f8d-42cb-a568-9865a5436713}, !- Handle
  {76d27471-5e9a-4374-8c8c-5066696efc67}, !- Name
  ;                                       !- HVAC Component

OS:PortList,
  {f065a84f-2198-4228-8fbd-ef7a8bb650fd}, !- Handle
  {e24f1a0d-810f-4806-ba58-a99dc649048e}, !- Name
  ;                                       !- HVAC Component

OS:PortList,
  {730e9fbe-cbe7-48db-a9c0-bd24ce9ef331}, !- Handle
  {52909666-7827-4b04-ad57-ac8e669683c6}, !- Name
  ;                                       !- HVAC Component

OS:Node,
  {f149ba03-7d9d-43ad-98a8-7716f401a582}, !- Handle
  Node 17,                                !- Name
  {310f70c9-0f21-4392-895d-661070475464}, !- Inlet Port
  ;                                       !- Outlet Port

OS:Connection,
  {310f70c9-0f21-4392-895d-661070475464}, !- Handle
  {393975c6-9668-4975-aa77-018e0b44bd5b}, !- Name
  ,                                       !- Source Object
  11,                                     !- Outlet Port
  {f149ba03-7d9d-43ad-98a8-7716f401a582}, !- Target Object
  2;                                      !- Inlet Port

OS:PortList,
  {ca31e401-3fbd-4cf1-9774-fbe3b9e15a78}, !- Handle
  {bc575718-e9e7-489a-af68-4a8d0a2587d1}, !- Name
  ;                                       !- HVAC Component

OS:PortList,
  {9662b2cf-1b95-486d-bb11-1b2e2d6370b2}, !- Handle
  {929062fa-4635-409c-af91-2f3afa321c46}, !- Name
  ;                                       !- HVAC Component

OS:PortList,
  {764525cd-bca0-402e-bd28-d2fca4fe4dcf}, !- Handle
  {3dcf8261-16ae-4a12-95c9-f00290d28ba1}, !- Name
  ;                                       !- HVAC Component

OS:Node,
  {049a7542-dc64-47db-9020-b89500879fa6}, !- Handle
  Node 18,                                !- Name
  {80e77ec7-30a9-44f0-bdba-bf6b9cdb9950}, !- Inlet Port
  ;                                       !- Outlet Port

OS:Connection,
  {80e77ec7-30a9-44f0-bdba-bf6b9cdb9950}, !- Handle
  {6cf89cf4-c011-4acd-b0d6-b9d967202b78}, !- Name
  ,                                       !- Source Object
  11,                                     !- Outlet Port
  {049a7542-dc64-47db-9020-b89500879fa6}, !- Target Object
  2;                                      !- Inlet Port

OS:PortList,
  {0549bd96-0387-499f-9d44-ad6828869550}, !- Handle
  {8822db93-eac1-4077-a08a-da23470fe0ff}, !- Name
  ;                                       !- HVAC Component

OS:PortList,
  {61cf0a1c-a55b-49fb-95f2-fb6866c387b2}, !- Handle
  {d0b74797-b034-4e81-9f8f-9826c390e9ad}, !- Name
  ;                                       !- HVAC Component

OS:PortList,